data_B.cif_0K

_audit_creation_method 'generated by Molecular-Toolbox 1.0.1' 
_chemical_formula_sum
'Cl10 C10 N2'

_cell_length_a 5.327145 
_cell_length_b 5.176182 
_cell_length_c 15.187944 
_cell_angle_alpha 90.000000 
_cell_angle_beta 100.269826
_cell_angle_gamma 90.000000

_symmetry_space_group_name_H-M  'P1'

 loop_
_atom_site_type_symbol 
_atom_site_label 
_atom_site_fract_x 
_atom_site_fract_y 
_atom_site_fract_z
Cl Cl1 0.116002 0.667576 0.331728
Cl Cl2 0.534482 0.099460 0.323470
Cl Cl3 0.963176 0.177401 0.492013
Cl Cl4 0.967319 0.826104 0.660638
Cl Cl5 0.530312 0.405912 0.654197
Cl Cl6 0.116002 0.332424 0.831728
Cl Cl7 0.534482 0.900540 0.823470
Cl Cl8 0.963176 0.822599 0.992013
Cl Cl9 0.967319 0.173896 0.160638
Cl Cl10 0.530312 0.594088 0.154197
C C1 0.358343 0.720511 0.421131
C C2 0.541989 0.912700 0.416560
C C3 0.541622 0.605938 0.564185
C C4 0.734587 0.947482 0.492154
C C5 0.736502 0.790822 0.568117
C C6 0.358343 0.279489 0.921131
C C7 0.541989 0.087300 0.916560
C C8 0.541622 0.394062 0.064185
C C9 0.734587 0.052518 0.992154
C C10 0.736502 0.209178 0.068117
N N1 0.360765 0.574099 0.492907
N N2 0.360765 0.425901 0.992907
loop_
_atom_site_aniso_label
_atom_site_aniso_B_11
_atom_site_aniso_B_22
_atom_site_aniso_B_33
_atom_site_aniso_B_23
_atom_site_aniso_B_13
_atom_site_aniso_B_12
# Additional Data for B_Aniso: 0.000000
Cl1 0.361112 0.484005 0.327672 -0.008685 -0.064335 -0.064479
Cl2 0.474168 0.432683 0.311880 0.123963 0.045502 -0.039276
Cl3 0.333624 0.335567 0.420840 0.000000 0.072699 -0.107992
Cl4 0.363776 0.499797 0.311091 0.011054 -0.062630 -0.050860
Cl5 0.484075 0.412155 0.326881 0.120804 0.066046 -0.047608
Cl6 0.361112 0.484005 0.327672 0.008685 -0.064335 0.064479
Cl7 0.474168 0.432683 0.311880 -0.123962 0.045502 0.039276
Cl8 0.333624 0.335567 0.420840 -0.000000 0.072699 0.107992
Cl9 0.363776 0.499797 0.311091 -0.011054 -0.062630 0.050860
Cl10 0.484075 0.412155 0.326881 -0.120804 0.066046 0.047608
C1 0.319370 0.356095 0.292141 0.025266 0.006246 -0.059980
C2 0.332364 0.350568 0.288193 0.046585 0.018749 -0.058509
C3 0.341098 0.341883 0.292141 0.045006 0.026445 -0.056460
C4 0.314484 0.330829 0.300826 0.029214 0.023333 -0.064714
C5 0.323832 0.350568 0.288193 0.032373 0.005542 -0.057936
C6 0.319370 0.356095 0.292141 -0.025266 0.006246 0.059980
C7 0.332364 0.350568 0.288193 -0.046585 0.018749 0.058509
C8 0.341098 0.341883 0.292141 -0.045006 0.026445 0.056460
C9 0.314484 0.330829 0.300826 -0.029214 0.023333 0.064714
C10 0.323832 0.350568 0.288193 -0.032373 0.005542 0.057936
N1 0.363633 0.392415 0.313459 0.055270 0.001500 -0.102022
N2 0.363633 0.392415 0.313459 -0.055270 0.001500 0.102022
#end of data_B.cif_0K

data_B.cif_10K

_audit_creation_method 'generated by Molecular-Toolbox 1.0.1' 
_chemical_formula_sum
'Cl10 C10 N2'

_cell_length_a 5.327145 
_cell_length_b 5.176182 
_cell_length_c 15.187944 
_cell_angle_alpha 90.000000 
_cell_angle_beta 100.269826
_cell_angle_gamma 90.000000

_symmetry_space_group_name_H-M  'P1'

 loop_
_atom_site_type_symbol 
_atom_site_label 
_atom_site_fract_x 
_atom_site_fract_y 
_atom_site_fract_z
Cl Cl1 0.116002 0.667576 0.331728
Cl Cl2 0.534482 0.099460 0.323470
Cl Cl3 0.963176 0.177401 0.492013
Cl Cl4 0.967319 0.826104 0.660638
Cl Cl5 0.530312 0.405912 0.654197
Cl Cl6 0.116002 0.332424 0.831728
Cl Cl7 0.534482 0.900540 0.823470
Cl Cl8 0.963176 0.822599 0.992013
Cl Cl9 0.967319 0.173896 0.160638
Cl Cl10 0.530312 0.594088 0.154197
C C1 0.358343 0.720511 0.421131
C C2 0.541989 0.912700 0.416560
C C3 0.541622 0.605938 0.564185
C C4 0.734587 0.947482 0.492154
C C5 0.736502 0.790822 0.568117
C C6 0.358343 0.279489 0.921131
C C7 0.541989 0.087300 0.916560
C C8 0.541622 0.394062 0.064185
C C9 0.734587 0.052518 0.992154
C C10 0.736502 0.209178 0.068117
N N1 0.360765 0.574099 0.492907
N N2 0.360765 0.425901 0.992907
loop_
_atom_site_aniso_label
_atom_site_aniso_B_11
_atom_site_aniso_B_22
_atom_site_aniso_B_33
_atom_site_aniso_B_23
_atom_site_aniso_B_13
_atom_site_aniso_B_12
# Additional Data for B_Aniso: 10.000000
Cl1 0.373115 0.499797 0.337936 -0.011054 -0.064059 -0.064901
Cl2 0.488582 0.446106 0.323723 0.123962 0.048391 -0.038499
Cl3 0.345820 0.348200 0.435052 -0.003158 0.076009 -0.108555
Cl4 0.373747 0.514799 0.322935 0.008685 -0.063626 -0.050505
Cl5 0.496381 0.426367 0.337935 0.120015 0.067240 -0.046972
Cl6 0.373115 0.499797 0.337936 0.011054 -0.064059 0.064901
Cl7 0.488582 0.446106 0.323723 -0.123962 0.048391 0.038499
Cl8 0.345820 0.348200 0.435052 0.003158 0.076009 0.108555
Cl9 0.373747 0.514799 0.322935 -0.008685 -0.063626 0.050505
Cl10 0.496381 0.426367 0.337935 -0.120015 0.067240 0.046972
C1 0.330122 0.367939 0.302405 0.022898 0.007299 -0.060402
C2 0.343880 0.362412 0.298457 0.045006 0.019802 -0.058014
C3 0.351850 0.353727 0.302405 0.043427 0.027498 -0.055965
C4 0.325538 0.341883 0.311880 0.026846 0.025303 -0.065136
C5 0.333844 0.362412 0.299247 0.030004 0.006736 -0.057581
C6 0.330122 0.367939 0.302405 -0.022898 0.007299 0.060402
C7 0.343880 0.362412 0.298457 -0.045006 0.019802 0.058014
C8 0.351850 0.353727 0.302405 -0.043427 0.027498 0.055965
C9 0.325538 0.341883 0.311880 -0.026846 0.025303 0.065136
C10 0.333844 0.362412 0.299247 -0.030004 0.006736 0.057581
N1 0.374385 0.404259 0.323724 0.052902 0.002553 -0.102445
N2 0.374385 0.404259 0.323724 -0.052902 0.002553 0.102445
#end of data_B.cif_10K

data_B.cif_20K

_audit_creation_method 'generated by Molecular-Toolbox 1.0.1' 
_chemical_formula_sum
'Cl10 C10 N2'

_cell_length_a 5.327145 
_cell_length_b 5.176182 
_cell_length_c 15.187944 
_cell_angle_alpha 90.000000 
_cell_angle_beta 100.269826
_cell_angle_gamma 90.000000

_symmetry_space_group_name_H-M  'P1'

 loop_
_atom_site_type_symbol 
_atom_site_label 
_atom_site_fract_x 
_atom_site_fract_y 
_atom_site_fract_z
Cl Cl1 0.116002 0.667576 0.331728
Cl Cl2 0.534482 0.099460 0.323470
Cl Cl3 0.963176 0.177401 0.492013
Cl Cl4 0.967319 0.826104 0.660638
Cl Cl5 0.530312 0.405912 0.654197
Cl Cl6 0.116002 0.332424 0.831728
Cl Cl7 0.534482 0.900540 0.823470
Cl Cl8 0.963176 0.822599 0.992013
Cl Cl9 0.967319 0.173896 0.160638
Cl Cl10 0.530312 0.594088 0.154197
C C1 0.358343 0.720511 0.421131
C C2 0.541989 0.912700 0.416560
C C3 0.541622 0.605938 0.564185
C C4 0.734587 0.947482 0.492154
C C5 0.736502 0.790822 0.568117
C C6 0.358343 0.279489 0.921131
C C7 0.541989 0.087300 0.916560
C C8 0.541622 0.394062 0.064185
C C9 0.734587 0.052518 0.992154
C C10 0.736502 0.209178 0.068117
N N1 0.360765 0.574099 0.492907
N N2 0.360765 0.425901 0.992907
loop_
_atom_site_aniso_label
_atom_site_aniso_B_11
_atom_site_aniso_B_22
_atom_site_aniso_B_33
_atom_site_aniso_B_23
_atom_site_aniso_B_13
_atom_site_aniso_B_12
# Additional Data for B_Aniso: 20.000000
Cl1 0.419258 0.562173 0.378994 -0.021318 -0.066062 -0.062847
Cl2 0.552437 0.497428 0.369518 0.131858 0.064325 -0.031652
Cl3 0.390425 0.390836 0.500586 -0.015791 0.095462 -0.116245
Cl4 0.415386 0.581122 0.368730 -0.003158 -0.067115 -0.045624
Cl5 0.557725 0.476110 0.378993 0.124752 0.079998 -0.042242
Cl6 0.419258 0.562173 0.378994 0.021318 -0.066062 0.062847
Cl7 0.552437 0.497428 0.369518 -0.131858 0.064325 0.031652
Cl8 0.390425 0.390836 0.500586 0.015791 0.095462 0.116245
Cl9 0.415386 0.581122 0.368730 0.003158 -0.067115 0.045624
Cl10 0.557725 0.476110 0.378993 -0.124752 0.079998 0.042242
C1 0.367644 0.409786 0.337146 0.017371 0.012716 -0.059056
C2 0.383652 0.400311 0.336356 0.042637 0.029667 -0.054552
C3 0.391455 0.392415 0.337146 0.040268 0.034469 -0.054197
C4 0.361084 0.378203 0.354516 0.019740 0.034459 -0.064850
C5 0.369358 0.402680 0.336357 0.022108 0.011021 -0.055104
C6 0.367644 0.409786 0.337146 -0.017371 0.012716 0.059056
C7 0.383652 0.400311 0.336356 -0.042637 0.029667 0.054552
C8 0.391455 0.392415 0.337146 -0.040268 0.034469 0.054197
C9 0.361084 0.378203 0.354516 -0.019740 0.034459 0.064850
C10 0.369358 0.402680 0.336357 -0.022108 0.011021 0.055104
N1 0.413326 0.443737 0.361623 0.048164 0.010087 -0.105620
N2 0.413326 0.443737 0.361623 -0.048164 0.010087 0.105620
#end of data_B.cif_20K

data_B.cif_30K

_audit_creation_method 'generated by Molecular-Toolbox 1.0.1' 
_chemical_formula_sum
'Cl10 C10 N2'

_cell_length_a 5.327145 
_cell_length_b 5.176182 
_cell_length_c 15.187944 
_cell_angle_alpha 90.000000 
_cell_angle_beta 100.269826
_cell_angle_gamma 90.000000

_symmetry_space_group_name_H-M  'P1'

 loop_
_atom_site_type_symbol 
_atom_site_label 
_atom_site_fract_x 
_atom_site_fract_y 
_atom_site_fract_z
Cl Cl1 0.116002 0.667576 0.331728
Cl Cl2 0.534482 0.099460 0.323470
Cl Cl3 0.963176 0.177401 0.492013
Cl Cl4 0.967319 0.826104 0.660638
Cl Cl5 0.530312 0.405912 0.654197
Cl Cl6 0.116002 0.332424 0.831728
Cl Cl7 0.534482 0.900540 0.823470
Cl Cl8 0.963176 0.822599 0.992013
Cl Cl9 0.967319 0.173896 0.160638
Cl Cl10 0.530312 0.594088 0.154197
C C1 0.358343 0.720511 0.421131
C C2 0.541989 0.912700 0.416560
C C3 0.541622 0.605938 0.564185
C C4 0.734587 0.947482 0.492154
C C5 0.736502 0.790822 0.568117
C C6 0.358343 0.279489 0.921131
C C7 0.541989 0.087300 0.916560
C C8 0.541622 0.394062 0.064185
C C9 0.734587 0.052518 0.992154
C C10 0.736502 0.209178 0.068117
N N1 0.360765 0.574099 0.492907
N N2 0.360765 0.425901 0.992907
loop_
_atom_site_aniso_label
_atom_site_aniso_B_11
_atom_site_aniso_B_22
_atom_site_aniso_B_33
_atom_site_aniso_B_23
_atom_site_aniso_B_13
_atom_site_aniso_B_12
# Additional Data for B_Aniso: 30.000000
Cl1 0.488770 0.656921 0.442160 -0.035530 -0.073447 -0.063050
Cl2 0.649144 0.577964 0.436631 0.149229 0.086390 -0.023894
Cl3 0.455028 0.450844 0.598493 -0.033161 0.124571 -0.127889
Cl4 0.480160 0.681397 0.435843 -0.017370 -0.074573 -0.041166
Cl5 0.653727 0.553487 0.441369 0.137385 0.099665 -0.038436
Cl6 0.488770 0.656921 0.442160 0.035530 -0.073447 0.063050
Cl7 0.649144 0.577964 0.436631 -0.149229 0.086390 0.023894
Cl8 0.455028 0.450844 0.598493 0.033161 0.124571 0.127889
Cl9 0.480160 0.681397 0.435843 0.017370 -0.074573 0.041166
Cl10 0.653727 0.553487 0.441369 -0.137385 0.099665 0.038436
C1 0.420403 0.468214 0.387678 0.010265 0.019394 -0.057993
C2 0.439719 0.454002 0.388468 0.040268 0.043619 -0.050313
C3 0.448195 0.446896 0.388468 0.037110 0.045950 -0.052430
C4 0.411774 0.428736 0.414524 0.011054 0.049042 -0.065621
C5 0.418858 0.458739 0.389258 0.012633 0.017345 -0.051355
C6 0.420403 0.468214 0.387678 -0.010265 0.019394 0.057993
C7 0.439719 0.454002 0.388468 -0.040268 0.043619 0.050313
C8 0.448195 0.446896 0.388468 -0.037110 0.045950 0.052430
C9 0.411774 0.428736 0.414524 -0.011054 0.049042 0.065621
C10 0.418858 0.458739 0.389258 -0.012633 0.017345 0.051355
N1 0.468898 0.500586 0.417682 0.041848 0.020858 -0.112185
N2 0.468898 0.500586 0.417682 -0.041848 0.020858 0.112185
#end of data_B.cif_30K

data_B.cif_40K

_audit_creation_method 'generated by Molecular-Toolbox 1.0.1' 
_chemical_formula_sum
'Cl10 C10 N2'

_cell_length_a 5.327145 
_cell_length_b 5.176182 
_cell_length_c 15.187944 
_cell_angle_alpha 90.000000 
_cell_angle_beta 100.269826
_cell_angle_gamma 90.000000

_symmetry_space_group_name_H-M  'P1'

 loop_
_atom_site_type_symbol 
_atom_site_label 
_atom_site_fract_x 
_atom_site_fract_y 
_atom_site_fract_z
Cl Cl1 0.116002 0.667576 0.331728
Cl Cl2 0.534482 0.099460 0.323470
Cl Cl3 0.963176 0.177401 0.492013
Cl Cl4 0.967319 0.826104 0.660638
Cl Cl5 0.530312 0.405912 0.654197
Cl Cl6 0.116002 0.332424 0.831728
Cl Cl7 0.534482 0.900540 0.823470
Cl Cl8 0.963176 0.822599 0.992013
Cl Cl9 0.967319 0.173896 0.160638
Cl Cl10 0.530312 0.594088 0.154197
C C1 0.358343 0.720511 0.421131
C C2 0.541989 0.912700 0.416560
C C3 0.541622 0.605938 0.564185
C C4 0.734587 0.947482 0.492154
C C5 0.736502 0.790822 0.568117
C C6 0.358343 0.279489 0.921131
C C7 0.541989 0.087300 0.916560
C C8 0.541622 0.394062 0.064185
C C9 0.734587 0.052518 0.992154
C C10 0.736502 0.209178 0.068117
N N1 0.360765 0.574099 0.492907
N N2 0.360765 0.425901 0.992907
loop_
_atom_site_aniso_label
_atom_site_aniso_B_11
_atom_site_aniso_B_22
_atom_site_aniso_B_33
_atom_site_aniso_B_23
_atom_site_aniso_B_13
_atom_site_aniso_B_12
# Additional Data for B_Aniso: 40.000000
Cl1 0.570733 0.770619 0.516379 -0.049743 -0.083522 -0.066361
Cl2 0.763970 0.674291 0.514009 0.172126 0.108731 -0.019035
Cl3 0.529996 0.521905 0.709822 -0.050532 0.156074 -0.144193
Cl4 0.557082 0.801412 0.513221 -0.030793 -0.085639 -0.039674
Cl5 0.767688 0.645077 0.515588 0.155545 0.121443 -0.037529
Cl6 0.570733 0.770619 0.516379 0.049743 -0.083522 0.066361
Cl7 0.763970 0.674291 0.514009 -0.172126 0.108731 0.019035
Cl8 0.529996 0.521905 0.709822 0.050532 0.156074 0.144193
Cl9 0.557082 0.801412 0.513221 0.030793 -0.085639 0.039674
Cl10 0.767688 0.645077 0.515588 -0.155545 0.121443 0.037529
C1 0.480294 0.535327 0.446107 0.002369 0.027480 -0.057847
C2 0.504723 0.515588 0.448475 0.039479 0.059756 -0.045792
C3 0.514334 0.508482 0.446896 0.034741 0.058697 -0.050521
C4 0.469133 0.485585 0.483216 0.001579 0.065950 -0.066533
C5 0.476228 0.522694 0.449265 0.003158 0.024935 -0.047606
C6 0.480294 0.535327 0.446107 -0.002369 0.027480 0.057847
C7 0.504723 0.515588 0.448475 -0.039479 0.059756 0.045792
C8 0.514334 0.508482 0.446896 -0.034741 0.058697 0.050521
C9 0.469133 0.485585 0.483216 -0.001579 0.065950 0.066533
C10 0.476228 0.522694 0.449265 -0.003158 0.024935 0.047606
N1 0.532391 0.564541 0.482427 0.035531 0.033178 -0.120303
N2 0.532391 0.564541 0.482427 -0.035531 0.033178 0.120303
#end of data_B.cif_40K

data_B.cif_50K

_audit_creation_method 'generated by Molecular-Toolbox 1.0.1' 
_chemical_formula_sum
'Cl10 C10 N2'

_cell_length_a 5.327145 
_cell_length_b 5.176182 
_cell_length_c 15.187944 
_cell_angle_alpha 90.000000 
_cell_angle_beta 100.269826
_cell_angle_gamma 90.000000

_symmetry_space_group_name_H-M  'P1'

 loop_
_atom_site_type_symbol 
_atom_site_label 
_atom_site_fract_x 
_atom_site_fract_y 
_atom_site_fract_z
Cl Cl1 0.116002 0.667576 0.331728
Cl Cl2 0.534482 0.099460 0.323470
Cl Cl3 0.963176 0.177401 0.492013
Cl Cl4 0.967319 0.826104 0.660638
Cl Cl5 0.530312 0.405912 0.654197
Cl Cl6 0.116002 0.332424 0.831728
Cl Cl7 0.534482 0.900540 0.823470
Cl Cl8 0.963176 0.822599 0.992013
Cl Cl9 0.967319 0.173896 0.160638
Cl Cl10 0.530312 0.594088 0.154197
C C1 0.358343 0.720511 0.421131
C C2 0.541989 0.912700 0.416560
C C3 0.541622 0.605938 0.564185
C C4 0.734587 0.947482 0.492154
C C5 0.736502 0.790822 0.568117
C C6 0.358343 0.279489 0.921131
C C7 0.541989 0.087300 0.916560
C C8 0.541622 0.394062 0.064185
C C9 0.734587 0.052518 0.992154
C C10 0.736502 0.209178 0.068117
N N1 0.360765 0.574099 0.492907
N N2 0.360765 0.425901 0.992907
loop_
_atom_site_aniso_label
_atom_site_aniso_B_11
_atom_site_aniso_B_22
_atom_site_aniso_B_33
_atom_site_aniso_B_23
_atom_site_aniso_B_13
_atom_site_aniso_B_12
# Additional Data for B_Aniso: 50.000000
Cl1 0.660684 0.893791 0.596915 -0.063165 -0.096356 -0.072638
Cl2 0.887868 0.780883 0.596913 0.198971 0.131280 -0.015802
Cl3 0.611053 0.599282 0.829046 -0.067113 0.188207 -0.163465
Cl4 0.641179 0.931691 0.595336 -0.042637 -0.099745 -0.040232
Cl5 0.892578 0.746142 0.596913 0.177653 0.144488 -0.039026
Cl6 0.660684 0.893791 0.596915 0.063165 -0.096356 0.072638
Cl7 0.887868 0.780883 0.596913 -0.198971 0.131280 0.015802
Cl8 0.611053 0.599282 0.829046 0.067113 0.188207 0.163465
Cl9 0.641179 0.931691 0.595336 0.042637 -0.099745 0.040232
Cl10 0.892578 0.746142 0.596913 -0.177653 0.144488 0.039026
C1 0.543855 0.606388 0.508483 -0.005527 0.035493 -0.058477
C2 0.572634 0.581122 0.512430 0.038689 0.075819 -0.041271
C3 0.585463 0.574806 0.509272 0.033162 0.072926 -0.049249
C4 0.530162 0.545592 0.555856 -0.007106 0.082785 -0.068082
C5 0.537269 0.590597 0.513220 -0.006316 0.032453 -0.043857
C6 0.543855 0.606388 0.508483 0.005527 0.035493 0.058477
C7 0.572634 0.581122 0.512430 -0.038689 0.075819 0.041271
C8 0.585463 0.574806 0.509272 -0.033162 0.072926 0.049249
C9 0.530162 0.545592 0.555856 0.007106 0.082785 0.068082
C10 0.537269 0.590597 0.513220 0.006316 0.032453 0.043857
N1 0.600646 0.634023 0.552698 0.030004 0.046483 -0.130611
N2 0.600646 0.634023 0.552698 -0.030004 0.046483 0.130611
#end of data_B.cif_50K

data_B.cif_60K

_audit_creation_method 'generated by Molecular-Toolbox 1.0.1' 
_chemical_formula_sum
'Cl10 C10 N2'

_cell_length_a 5.327145 
_cell_length_b 5.176182 
_cell_length_c 15.187944 
_cell_angle_alpha 90.000000 
_cell_angle_beta 100.269826
_cell_angle_gamma 90.000000

_symmetry_space_group_name_H-M  'P1'

 loop_
_atom_site_type_symbol 
_atom_site_label 
_atom_site_fract_x 
_atom_site_fract_y 
_atom_site_fract_z
Cl Cl1 0.116002 0.667576 0.331728
Cl Cl2 0.534482 0.099460 0.323470
Cl Cl3 0.963176 0.177401 0.492013
Cl Cl4 0.967319 0.826104 0.660638
Cl Cl5 0.530312 0.405912 0.654197
Cl Cl6 0.116002 0.332424 0.831728
Cl Cl7 0.534482 0.900540 0.823470
Cl Cl8 0.963176 0.822599 0.992013
Cl Cl9 0.967319 0.173896 0.160638
Cl Cl10 0.530312 0.594088 0.154197
C C1 0.358343 0.720511 0.421131
C C2 0.541989 0.912700 0.416560
C C3 0.541622 0.605938 0.564185
C C4 0.734587 0.947482 0.492154
C C5 0.736502 0.790822 0.568117
C C6 0.358343 0.279489 0.921131
C C7 0.541989 0.087300 0.916560
C C8 0.541622 0.394062 0.064185
C C9 0.734587 0.052518 0.992154
C C10 0.736502 0.209178 0.068117
N N1 0.360765 0.574099 0.492907
N N2 0.360765 0.425901 0.992907
loop_
_atom_site_aniso_label
_atom_site_aniso_B_11
_atom_site_aniso_B_22
_atom_site_aniso_B_33
_atom_site_aniso_B_23
_atom_site_aniso_B_13
_atom_site_aniso_B_12
# Additional Data for B_Aniso: 60.000000
Cl1 0.754517 1.024070 0.681400 -0.075798 -0.110817 -0.081106
Cl2 1.018470 0.893002 0.682976 0.227396 0.153616 -0.014619
Cl3 0.696059 0.680608 0.952219 -0.082904 0.221043 -0.184926
Cl4 0.730962 1.069076 0.681400 -0.053691 -0.114701 -0.042203
Cl5 1.022617 0.851944 0.680608 0.202130 0.167178 -0.041654
Cl6 0.754517 1.024070 0.681400 0.075798 -0.110817 0.081106
Cl7 1.018470 0.893002 0.682976 -0.227396 0.153616 0.014619
Cl8 0.696059 0.680608 0.952219 0.082904 0.221043 0.184926
Cl9 0.730962 1.069076 0.681400 0.053691 -0.114701 0.042203
Cl10 1.022617 0.851944 0.680608 -0.202130 0.167178 0.041654
C1 0.610549 0.681397 0.573227 -0.013422 0.043928 -0.059108
C2 0.643627 0.649025 0.577175 0.037899 0.092024 -0.037527
C3 0.658708 0.643498 0.574806 0.032373 0.086940 -0.048613
C4 0.593535 0.608757 0.630076 -0.016581 0.099902 -0.069771
C5 0.600653 0.661658 0.578754 -0.015791 0.040252 -0.040107
C6 0.610549 0.681397 0.573227 0.013422 0.043928 0.059108
C7 0.643627 0.649025 0.577175 -0.037899 0.092024 0.037527
C8 0.658708 0.643498 0.574806 -0.032373 0.086940 0.048613
C9 0.593535 0.608757 0.630076 0.016581 0.099902 0.069771
C10 0.600653 0.661658 0.578754 0.015791 0.040252 0.040107
N1 0.672522 0.707453 0.625339 0.025267 0.059434 -0.142333
N2 0.672522 0.707453 0.625339 -0.025267 0.059434 0.142333
#end of data_B.cif_60K

data_B.cif_70K

_audit_creation_method 'generated by Molecular-Toolbox 1.0.1' 
_chemical_formula_sum
'Cl10 C10 N2'

_cell_length_a 5.327145 
_cell_length_b 5.176182 
_cell_length_c 15.187944 
_cell_angle_alpha 90.000000 
_cell_angle_beta 100.269826
_cell_angle_gamma 90.000000

_symmetry_space_group_name_H-M  'P1'

 loop_
_atom_site_type_symbol 
_atom_site_label 
_atom_site_fract_x 
_atom_site_fract_y 
_atom_site_fract_z
Cl Cl1 0.116002 0.667576 0.331728
Cl Cl2 0.534482 0.099460 0.323470
Cl Cl3 0.963176 0.177401 0.492013
Cl Cl4 0.967319 0.826104 0.660638
Cl Cl5 0.530312 0.405912 0.654197
Cl Cl6 0.116002 0.332424 0.831728
Cl Cl7 0.534482 0.900540 0.823470
Cl Cl8 0.963176 0.822599 0.992013
Cl Cl9 0.967319 0.173896 0.160638
Cl Cl10 0.530312 0.594088 0.154197
C C1 0.358343 0.720511 0.421131
C C2 0.541989 0.912700 0.416560
C C3 0.541622 0.605938 0.564185
C C4 0.734587 0.947482 0.492154
C C5 0.736502 0.790822 0.568117
C C6 0.358343 0.279489 0.921131
C C7 0.541989 0.087300 0.916560
C C8 0.541622 0.394062 0.064185
C C9 0.734587 0.052518 0.992154
C C10 0.736502 0.209178 0.068117
N N1 0.360765 0.574099 0.492907
N N2 0.360765 0.425901 0.992907
loop_
_atom_site_aniso_label
_atom_site_aniso_B_11
_atom_site_aniso_B_22
_atom_site_aniso_B_33
_atom_site_aniso_B_23
_atom_site_aniso_B_13
_atom_site_aniso_B_12
# Additional Data for B_Aniso: 70.000000
Cl1 0.850929 1.158297 0.768252 -0.089221 -0.126409 -0.090491
Cl2 1.152970 1.008279 0.771408 0.258189 0.176374 -0.013791
Cl3 0.783181 0.764302 1.078550 -0.098695 0.253666 -0.207164
Cl4 0.823325 1.211198 0.769831 -0.063955 -0.130789 -0.045587
Cl5 1.157344 0.962484 0.767460 0.228186 0.190432 -0.045555
Cl6 0.850929 1.158297 0.768252 0.089221 -0.126409 0.090491
Cl7 1.152970 1.008279 0.771408 -0.258189 0.176374 0.013791
Cl8 0.783181 0.764302 1.078550 0.098695 0.253666 0.207164
Cl9 0.823325 1.211198 0.769831 0.063955 -0.130789 0.045587
Cl10 1.157344 0.962484 0.767460 -0.228186 0.190432 0.045555
C1 0.678269 0.757196 0.639551 -0.020529 0.051091 -0.060375
C2 0.715461 0.718507 0.644288 0.037899 0.108651 -0.033643
C3 0.733508 0.713770 0.641130 0.031583 0.101095 -0.047977
C4 0.658513 0.673502 0.706664 -0.025266 0.117441 -0.072097
C5 0.665340 0.733509 0.645868 -0.025266 0.047556 -0.037135
C6 0.678269 0.757196 0.639551 0.020529 0.051091 0.060375
C7 0.715461 0.718507 0.644288 -0.037899 0.108651 0.033643
C8 0.733508 0.713770 0.641130 -0.031583 0.101095 0.047977
C9 0.658513 0.673502 0.706664 0.025266 0.117441 0.072097
C10 0.665340 0.733509 0.645868 0.025266 0.047556 0.037135
N1 0.745725 0.782462 0.700348 0.021319 0.072030 -0.154690
N2 0.745725 0.782462 0.700348 -0.021319 0.072030 0.154690
#end of data_B.cif_70K

data_B.cif_80K

_audit_creation_method 'generated by Molecular-Toolbox 1.0.1' 
_chemical_formula_sum
'Cl10 C10 N2'

_cell_length_a 5.327145 
_cell_length_b 5.176182 
_cell_length_c 15.187944 
_cell_angle_alpha 90.000000 
_cell_angle_beta 100.269826
_cell_angle_gamma 90.000000

_symmetry_space_group_name_H-M  'P1'

 loop_
_atom_site_type_symbol 
_atom_site_label 
_atom_site_fract_x 
_atom_site_fract_y 
_atom_site_fract_z
Cl Cl1 0.116002 0.667576 0.331728
Cl Cl2 0.534482 0.099460 0.323470
Cl Cl3 0.963176 0.177401 0.492013
Cl Cl4 0.967319 0.826104 0.660638
Cl Cl5 0.530312 0.405912 0.654197
Cl Cl6 0.116002 0.332424 0.831728
Cl Cl7 0.534482 0.900540 0.823470
Cl Cl8 0.963176 0.822599 0.992013
Cl Cl9 0.967319 0.173896 0.160638
Cl Cl10 0.530312 0.594088 0.154197
C C1 0.358343 0.720511 0.421131
C C2 0.541989 0.912700 0.416560
C C3 0.541622 0.605938 0.564185
C C4 0.734587 0.947482 0.492154
C C5 0.736502 0.790822 0.568117
C C6 0.358343 0.279489 0.921131
C C7 0.541989 0.087300 0.916560
C C8 0.541622 0.394062 0.064185
C C9 0.734587 0.052518 0.992154
C C10 0.736502 0.209178 0.068117
N N1 0.360765 0.574099 0.492907
N N2 0.360765 0.425901 0.992907
loop_
_atom_site_aniso_label
_atom_site_aniso_B_11
_atom_site_aniso_B_22
_atom_site_aniso_B_33
_atom_site_aniso_B_23
_atom_site_aniso_B_13
_atom_site_aniso_B_12
# Additional Data for B_Aniso: 80.000000
Cl1 0.949131 1.295682 0.856684 -0.101854 -0.143274 -0.100513
Cl2 1.289259 1.127504 0.861419 0.289772 0.197860 -0.014375
Cl3 0.872394 0.850365 1.207249 -0.114486 0.285934 -0.230957
Cl4 0.917453 1.355689 0.859053 -0.073430 -0.148290 -0.049607
Cl5 1.295178 1.074603 0.855892 0.255031 0.213967 -0.050092
Cl6 0.949131 1.295682 0.856684 0.101854 -0.143274 0.100513
Cl7 1.289259 1.127504 0.861419 -0.289772 0.197860 0.014375
Cl8 0.872394 0.850365 1.207249 0.114486 0.285934 0.230957
Cl9 0.917453 1.355689 0.859053 0.073430 -0.148290 0.049607
Cl10 1.295178 1.074603 0.855892 -0.255031 0.213967 0.050092
C1 0.747819 0.834574 0.706664 -0.028424 0.059172 -0.061783
C2 0.789613 0.789568 0.712191 0.037899 0.125418 -0.030535
C3 0.809861 0.785621 0.708243 0.030793 0.115391 -0.048117
C4 0.723977 0.739036 0.783252 -0.033951 0.134203 -0.075199
C5 0.730816 0.806939 0.713770 -0.034741 0.055000 -0.034163
C6 0.747819 0.834574 0.706664 0.028424 0.059172 0.061783
C7 0.789613 0.789568 0.712191 -0.037899 0.125418 0.030535
C8 0.809861 0.785621 0.708243 -0.030793 0.115391 0.048117
C9 0.723977 0.739036 0.783252 0.033951 0.134203 0.075199
C10 0.730816 0.806939 0.713770 0.034741 0.055000 0.034163
N1 0.820507 0.859050 0.776936 0.017371 0.084908 -0.167825
N2 0.820507 0.859050 0.776936 -0.017371 0.084908 0.167825
#end of data_B.cif_80K

data_B.cif_90K

_audit_creation_method 'generated by Molecular-Toolbox 1.0.1' 
_chemical_formula_sum
'Cl10 C10 N2'

_cell_length_a 5.327145 
_cell_length_b 5.176182 
_cell_length_c 15.187944 
_cell_angle_alpha 90.000000 
_cell_angle_beta 100.269826
_cell_angle_gamma 90.000000

_symmetry_space_group_name_H-M  'P1'

 loop_
_atom_site_type_symbol 
_atom_site_label 
_atom_site_fract_x 
_atom_site_fract_y 
_atom_site_fract_z
Cl Cl1 0.116002 0.667576 0.331728
Cl Cl2 0.534482 0.099460 0.323470
Cl Cl3 0.963176 0.177401 0.492013
Cl Cl4 0.967319 0.826104 0.660638
Cl Cl5 0.530312 0.405912 0.654197
Cl Cl6 0.116002 0.332424 0.831728
Cl Cl7 0.534482 0.900540 0.823470
Cl Cl8 0.963176 0.822599 0.992013
Cl Cl9 0.967319 0.173896 0.160638
Cl Cl10 0.530312 0.594088 0.154197
C C1 0.358343 0.720511 0.421131
C C2 0.541989 0.912700 0.416560
C C3 0.541622 0.605938 0.564185
C C4 0.734587 0.947482 0.492154
C C5 0.736502 0.790822 0.568117
C C6 0.358343 0.279489 0.921131
C C7 0.541989 0.087300 0.916560
C C8 0.541622 0.394062 0.064185
C C9 0.734587 0.052518 0.992154
C C10 0.736502 0.209178 0.068117
N N1 0.360765 0.574099 0.492907
N N2 0.360765 0.425901 0.992907
loop_
_atom_site_aniso_label
_atom_site_aniso_B_11
_atom_site_aniso_B_22
_atom_site_aniso_B_33
_atom_site_aniso_B_23
_atom_site_aniso_B_13
_atom_site_aniso_B_12
# Additional Data for B_Aniso: 90.000000
Cl1 1.049676 1.434646 0.946695 -0.114487 -0.159857 -0.110534
Cl2 1.428909 1.247518 0.952219 0.321355 0.220263 -0.014960
Cl3 0.963464 0.938007 1.337528 -0.129488 0.319261 -0.256162
Cl4 1.013923 1.502549 0.949854 -0.082905 -0.165509 -0.053627
Cl5 1.434592 1.188300 0.945902 0.282666 0.237783 -0.055265
Cl6 1.049676 1.434646 0.946695 0.114487 -0.159857 0.110534
Cl7 1.428909 1.247518 0.952219 -0.321355 0.220263 0.014960
Cl8 0.963464 0.938007 1.337528 0.129488 0.319261 0.256162
Cl9 1.013923 1.502549 0.949854 0.082905 -0.165509 0.053627
Cl10 1.434592 1.188300 0.945902 -0.282666 0.237783 0.055265
C1 0.817882 0.913531 0.774567 -0.035530 0.066616 -0.063827
C2 0.863487 0.861419 0.780094 0.038689 0.141409 -0.027287
C3 0.887004 0.858261 0.776146 0.030793 0.129828 -0.048894
C4 0.791021 0.806149 0.861419 -0.041847 0.151247 -0.078160
C5 0.797847 0.881158 0.782463 -0.043426 0.062586 -0.031827
C6 0.817882 0.913531 0.774567 0.035530 0.066616 0.063827
C7 0.863487 0.861419 0.780094 -0.038689 0.141409 0.027287
C8 0.887004 0.858261 0.776146 -0.030793 0.129828 0.048894
C9 0.791021 0.806149 0.861419 0.041847 0.151247 0.078160
C10 0.797847 0.881158 0.782463 0.043426 0.062586 0.031827
N1 0.896541 0.937218 0.853524 0.014213 0.097008 -0.182373
N2 0.896541 0.937218 0.853524 -0.014213 0.097008 0.182373
#end of data_B.cif_90K

data_B.cif_100K

_audit_creation_method 'generated by Molecular-Toolbox 1.0.1' 
_chemical_formula_sum
'Cl10 C10 N2'

_cell_length_a 5.327145 
_cell_length_b 5.176182 
_cell_length_c 15.187944 
_cell_angle_alpha 90.000000 
_cell_angle_beta 100.269826
_cell_angle_gamma 90.000000

_symmetry_space_group_name_H-M  'P1'

 loop_
_atom_site_type_symbol 
_atom_site_label 
_atom_site_fract_x 
_atom_site_fract_y 
_atom_site_fract_z
Cl Cl1 0.116002 0.667576 0.331728
Cl Cl2 0.534482 0.099460 0.323470
Cl Cl3 0.963176 0.177401 0.492013
Cl Cl4 0.967319 0.826104 0.660638
Cl Cl5 0.530312 0.405912 0.654197
Cl Cl6 0.116002 0.332424 0.831728
Cl Cl7 0.534482 0.900540 0.823470
Cl Cl8 0.963176 0.822599 0.992013
Cl Cl9 0.967319 0.173896 0.160638
Cl Cl10 0.530312 0.594088 0.154197
C C1 0.358343 0.720511 0.421131
C C2 0.541989 0.912700 0.416560
C C3 0.541622 0.605938 0.564185
C C4 0.734587 0.947482 0.492154
C C5 0.736502 0.790822 0.568117
C C6 0.358343 0.279489 0.921131
C C7 0.541989 0.087300 0.916560
C C8 0.541622 0.394062 0.064185
C C9 0.734587 0.052518 0.992154
C C10 0.736502 0.209178 0.068117
N N1 0.360765 0.574099 0.492907
N N2 0.360765 0.425901 0.992907
loop_
_atom_site_aniso_label
_atom_site_aniso_B_11
_atom_site_aniso_B_22
_atom_site_aniso_B_33
_atom_site_aniso_B_23
_atom_site_aniso_B_13
_atom_site_aniso_B_12
# Additional Data for B_Aniso: 100.000000
Cl1 1.151498 1.575978 1.037496 -0.127120 -0.177076 -0.121333
Cl2 1.569348 1.369112 1.043809 0.354517 0.242807 -0.015263
Cl3 1.055046 1.026439 1.468596 -0.144490 0.351952 -0.281367
Cl4 1.110907 1.650987 1.041444 -0.092379 -0.183364 -0.058424
Cl5 1.576048 1.304367 1.036703 0.311090 0.260963 -0.060297
Cl6 1.151498 1.575978 1.037496 0.127120 -0.177076 0.121333
Cl7 1.569348 1.369112 1.043809 -0.354517 0.242807 0.015263
Cl8 1.055046 1.026439 1.468596 0.144490 0.351952 0.281367
Cl9 1.110907 1.650987 1.041444 0.092379 -0.183364 0.058424
Cl10 1.576048 1.304367 1.036703 -0.311090 0.260963 0.060297
C1 0.887945 0.992487 0.842470 -0.042636 0.074061 -0.066647
C2 0.938152 0.934059 0.848786 0.038689 0.157540 -0.024179
C3 0.964937 0.931691 0.844838 0.030793 0.144405 -0.048894
C4 0.858065 0.873263 0.939586 -0.050532 0.168291 -0.081263
C5 0.865666 0.956167 0.851945 -0.052111 0.070312 -0.029491
C6 0.887945 0.992487 0.842470 0.042636 0.074061 0.066647
C7 0.938152 0.934059 0.848786 -0.038689 0.157540 0.024179
C8 0.964937 0.931691 0.844838 -0.030793 0.144405 0.048894
C9 0.858065 0.873263 0.939586 0.050532 0.168291 0.081263
C10 0.865666 0.956167 0.851945 0.052111 0.070312 0.029491
N1 0.973364 1.016174 0.930902 0.011055 0.109250 -0.196920
N2 0.973364 1.016174 0.930902 -0.011055 0.109250 0.196920
#end of data_B.cif_100K

data_B.cif_110K

_audit_creation_method 'generated by Molecular-Toolbox 1.0.1' 
_chemical_formula_sum
'Cl10 C10 N2'

_cell_length_a 5.327145 
_cell_length_b 5.176182 
_cell_length_c 15.187944 
_cell_angle_alpha 90.000000 
_cell_angle_beta 100.269826
_cell_angle_gamma 90.000000

_symmetry_space_group_name_H-M  'P1'

 loop_
_atom_site_type_symbol 
_atom_site_label 
_atom_site_fract_x 
_atom_site_fract_y 
_atom_site_fract_z
Cl Cl1 0.116002 0.667576 0.331728
Cl Cl2 0.534482 0.099460 0.323470
Cl Cl3 0.963176 0.177401 0.492013
Cl Cl4 0.967319 0.826104 0.660638
Cl Cl5 0.530312 0.405912 0.654197
Cl Cl6 0.116002 0.332424 0.831728
Cl Cl7 0.534482 0.900540 0.823470
Cl Cl8 0.963176 0.822599 0.992013
Cl Cl9 0.967319 0.173896 0.160638
Cl Cl10 0.530312 0.594088 0.154197
C C1 0.358343 0.720511 0.421131
C C2 0.541989 0.912700 0.416560
C C3 0.541622 0.605938 0.564185
C C4 0.734587 0.947482 0.492154
C C5 0.736502 0.790822 0.568117
C C6 0.358343 0.279489 0.921131
C C7 0.541989 0.087300 0.916560
C C8 0.541622 0.394062 0.064185
C C9 0.734587 0.052518 0.992154
C C10 0.736502 0.209178 0.068117
N N1 0.360765 0.574099 0.492907
N N2 0.360765 0.425901 0.992907
loop_
_atom_site_aniso_label
_atom_site_aniso_B_11
_atom_site_aniso_B_22
_atom_site_aniso_B_33
_atom_site_aniso_B_23
_atom_site_aniso_B_13
_atom_site_aniso_B_12
# Additional Data for B_Aniso: 110.000000
Cl1 1.253068 1.718101 1.129086 -0.139753 -0.194932 -0.132908
Cl2 1.711089 1.492284 1.136978 0.387678 0.264856 -0.016343
Cl3 1.148208 1.116450 1.601244 -0.158702 0.384924 -0.306432
Cl4 1.208403 1.801005 1.133824 -0.101854 -0.201856 -0.063221
Cl5 1.718544 1.420433 1.127503 0.340305 0.284921 -0.065965
Cl6 1.253068 1.718101 1.129086 0.139753 -0.194932 0.132908
Cl7 1.711089 1.492284 1.136978 -0.387678 0.264856 0.016343
Cl8 1.148208 1.116450 1.601244 0.158702 0.384924 0.306432
Cl9 1.208403 1.801005 1.133824 0.101854 -0.201856 0.063221
Cl10 1.718544 1.420433 1.127503 -0.340305 0.284921 0.065965
C1 0.959562 1.073023 0.911163 -0.048953 0.081646 -0.068550
C2 1.013606 1.006700 0.918268 0.039479 0.173812 -0.021707
C3 1.043357 1.005121 0.913531 0.030793 0.158206 -0.050448
C4 0.925873 0.941165 1.017754 -0.058428 0.185334 -0.085001
C5 0.934251 1.031966 0.921427 -0.060797 0.078038 -0.027155
C6 0.959562 1.073023 0.911163 0.048953 0.081646 0.068550
C7 1.013606 1.006700 0.918268 -0.039479 0.173812 0.021707
C8 1.043357 1.005121 0.913531 -0.030793 0.158206 0.050448
C9 0.925873 0.941165 1.017754 0.058428 0.185334 0.085001
C10 0.934251 1.031966 0.921427 0.060797 0.078038 0.027155
N1 1.051465 1.095921 1.009069 0.007897 0.120855 -0.212245
N2 1.051465 1.095921 1.009069 -0.007897 0.120855 0.212245
#end of data_B.cif_110K

data_B.cif_120K

_audit_creation_method 'generated by Molecular-Toolbox 1.0.1' 
_chemical_formula_sum
'Cl10 C10 N2'

_cell_length_a 5.327145 
_cell_length_b 5.176182 
_cell_length_c 15.187944 
_cell_angle_alpha 90.000000 
_cell_angle_beta 100.269826
_cell_angle_gamma 90.000000

_symmetry_space_group_name_H-M  'P1'

 loop_
_atom_site_type_symbol 
_atom_site_label 
_atom_site_fract_x 
_atom_site_fract_y 
_atom_site_fract_z
Cl Cl1 0.116002 0.667576 0.331728
Cl Cl2 0.534482 0.099460 0.323470
Cl Cl3 0.963176 0.177401 0.492013
Cl Cl4 0.967319 0.826104 0.660638
Cl Cl5 0.530312 0.405912 0.654197
Cl Cl6 0.116002 0.332424 0.831728
Cl Cl7 0.534482 0.900540 0.823470
Cl Cl8 0.963176 0.822599 0.992013
Cl Cl9 0.967319 0.173896 0.160638
Cl Cl10 0.530312 0.594088 0.154197
C C1 0.358343 0.720511 0.421131
C C2 0.541989 0.912700 0.416560
C C3 0.541622 0.605938 0.564185
C C4 0.734587 0.947482 0.492154
C C5 0.736502 0.790822 0.568117
C C6 0.358343 0.279489 0.921131
C C7 0.541989 0.087300 0.916560
C C8 0.541622 0.394062 0.064185
C C9 0.734587 0.052518 0.992154
C C10 0.736502 0.209178 0.068117
N N1 0.360765 0.574099 0.492907
N N2 0.360765 0.425901 0.992907
loop_
_atom_site_aniso_label
_atom_site_aniso_B_11
_atom_site_aniso_B_22
_atom_site_aniso_B_33
_atom_site_aniso_B_23
_atom_site_aniso_B_13
_atom_site_aniso_B_12
# Additional Data for B_Aniso: 120.000000
Cl1 1.356193 1.861802 1.221466 -0.152386 -0.212646 -0.143706
Cl2 1.854333 1.616246 1.229357 0.420840 0.286764 -0.017422
Cl3 1.241394 1.206460 1.734681 -0.173704 0.418037 -0.332414
Cl4 1.307428 1.951813 1.226203 -0.111329 -0.220348 -0.068795
Cl5 1.861856 1.538079 1.219882 0.369519 0.309159 -0.070857
Cl6 1.356193 1.861802 1.221466 0.152386 -0.212646 0.143706
Cl7 1.854333 1.616246 1.229357 -0.420840 0.286764 0.017422
Cl8 1.241394 1.206460 1.734681 0.173704 0.418037 0.332414
Cl9 1.307428 1.951813 1.226204 0.111329 -0.220348 0.068795
Cl10 1.861856 1.538079 1.219882 -0.369519 0.309159 0.070857
C1 1.030440 1.152770 0.980645 -0.056059 0.089372 -0.071371
C2 1.089824 1.080919 0.987750 0.040268 0.190084 -0.019236
C3 1.122844 1.080130 0.983013 0.031583 0.172924 -0.051084
C4 0.994471 1.009068 1.096710 -0.066323 0.202519 -0.088740
C5 1.002558 1.108554 0.990909 -0.068692 0.084987 -0.024678
C6 1.030440 1.152770 0.980645 0.056059 0.089372 0.071371
C7 1.089824 1.080919 0.987750 -0.040268 0.190084 0.019236
C8 1.122844 1.080130 0.983013 -0.031583 0.172924 0.051084
C9 0.994471 1.009068 1.096710 0.066323 0.202519 0.088740
C10 1.002558 1.108554 0.990909 0.068692 0.084987 0.024678
N1 1.129591 1.176457 1.088026 0.005528 0.132601 -0.227429
N2 1.129591 1.176457 1.088026 -0.005528 0.132601 0.227429
#end of data_B.cif_120K

data_B.cif_130K

_audit_creation_method 'generated by Molecular-Toolbox 1.0.1' 
_chemical_formula_sum
'Cl10 C10 N2'

_cell_length_a 5.327145 
_cell_length_b 5.176182 
_cell_length_c 15.187944 
_cell_angle_alpha 90.000000 
_cell_angle_beta 100.269826
_cell_angle_gamma 90.000000

_symmetry_space_group_name_H-M  'P1'

 loop_
_atom_site_type_symbol 
_atom_site_label 
_atom_site_fract_x 
_atom_site_fract_y 
_atom_site_fract_z
Cl Cl1 0.116002 0.667576 0.331728
Cl Cl2 0.534482 0.099460 0.323470
Cl Cl3 0.963176 0.177401 0.492013
Cl Cl4 0.967319 0.826104 0.660638
Cl Cl5 0.530312 0.405912 0.654197
Cl Cl6 0.116002 0.332424 0.831728
Cl Cl7 0.534482 0.900540 0.823470
Cl Cl8 0.963176 0.822599 0.992013
Cl Cl9 0.967319 0.173896 0.160638
Cl Cl10 0.530312 0.594088 0.154197
C C1 0.358343 0.720511 0.421131
C C2 0.541989 0.912700 0.416560
C C3 0.541622 0.605938 0.564185
C C4 0.734587 0.947482 0.492154
C C5 0.736502 0.790822 0.568117
C C6 0.358343 0.279489 0.921131
C C7 0.541989 0.087300 0.916560
C C8 0.541622 0.394062 0.064185
C C9 0.734587 0.052518 0.992154
C C10 0.736502 0.209178 0.068117
N N1 0.360765 0.574099 0.492907
N N2 0.360765 0.425901 0.992907
loop_
_atom_site_aniso_label
_atom_site_aniso_B_11
_atom_site_aniso_B_22
_atom_site_aniso_B_33
_atom_site_aniso_B_23
_atom_site_aniso_B_13
_atom_site_aniso_B_12
# Additional Data for B_Aniso: 130.000000
Cl1 1.460081 2.006293 1.313846 -0.165019 -0.230361 -0.155282
Cl2 1.997628 1.740209 1.323316 0.454792 0.308954 -0.018362
Cl3 1.335371 1.298050 1.868907 -0.188705 0.451291 -0.358396
Cl4 1.407242 2.103410 1.319373 -0.120804 -0.238698 -0.073591
Cl5 2.005655 1.655725 1.312262 0.398733 0.332621 -0.076525
Cl6 1.460081 2.006293 1.313846 0.165019 -0.230361 0.155282
Cl7 1.997628 1.740209 1.323316 -0.454792 0.308954 0.018362
Cl8 1.335371 1.298050 1.868907 0.188705 0.451291 0.358396
Cl9 1.407242 2.103410 1.319373 0.120804 -0.238698 0.073591
Cl10 2.005655 1.655725 1.312262 -0.398733 0.332621 0.076525
C1 1.102570 1.234095 1.050127 -0.062376 0.096321 -0.074051
C2 1.166555 1.155138 1.058021 0.041058 0.205720 -0.016764
C3 1.202054 1.154349 1.052495 0.031583 0.186865 -0.051861
C4 1.062792 1.078550 1.175667 -0.074219 0.218926 -0.092478
C5 1.071655 1.185142 1.061181 -0.077378 0.092077 -0.023119
C6 1.102570 1.234095 1.050127 0.062376 0.096321 0.074051
C7 1.166555 1.155138 1.058021 -0.041058 0.205720 0.016764
C8 1.202054 1.154349 1.052495 -0.031583 0.186865 0.051861
C9 1.062792 1.078550 1.175667 0.074219 0.218926 0.092478
C10 1.071655 1.185142 1.061181 0.077378 0.092077 0.023119
N1 1.208481 1.258572 1.166983 0.003159 0.144347 -0.243389
N2 1.208481 1.258572 1.166983 -0.003159 0.144347 0.243389
#end of data_B.cif_130K

data_B.cif_140K

_audit_creation_method 'generated by Molecular-Toolbox 1.0.1' 
_chemical_formula_sum
'Cl10 C10 N2'

_cell_length_a 5.327145 
_cell_length_b 5.176182 
_cell_length_c 15.187944 
_cell_angle_alpha 90.000000 
_cell_angle_beta 100.269826
_cell_angle_gamma 90.000000

_symmetry_space_group_name_H-M  'P1'

 loop_
_atom_site_type_symbol 
_atom_site_label 
_atom_site_fract_x 
_atom_site_fract_y 
_atom_site_fract_z
Cl Cl1 0.116002 0.667576 0.331728
Cl Cl2 0.534482 0.099460 0.323470
Cl Cl3 0.963176 0.177401 0.492013
Cl Cl4 0.967319 0.826104 0.660638
Cl Cl5 0.530312 0.405912 0.654197
Cl Cl6 0.116002 0.332424 0.831728
Cl Cl7 0.534482 0.900540 0.823470
Cl Cl8 0.963176 0.822599 0.992013
Cl Cl9 0.967319 0.173896 0.160638
Cl Cl10 0.530312 0.594088 0.154197
C C1 0.358343 0.720511 0.421131
C C2 0.541989 0.912700 0.416560
C C3 0.541622 0.605938 0.564185
C C4 0.734587 0.947482 0.492154
C C5 0.736502 0.790822 0.568117
C C6 0.358343 0.279489 0.921131
C C7 0.541989 0.087300 0.916560
C C8 0.541622 0.394062 0.064185
C C9 0.734587 0.052518 0.992154
C C10 0.736502 0.209178 0.068117
N N1 0.360765 0.574099 0.492907
N N2 0.360765 0.425901 0.992907
loop_
_atom_site_aniso_label
_atom_site_aniso_B_11
_atom_site_aniso_B_22
_atom_site_aniso_B_33
_atom_site_aniso_B_23
_atom_site_aniso_B_13
_atom_site_aniso_B_12
# Additional Data for B_Aniso: 140.000000
Cl1 1.563718 2.150784 1.407015 -0.177652 -0.248712 -0.166857
Cl2 2.141965 1.865750 1.417274 0.488743 0.331920 -0.020078
Cl3 1.430111 1.388851 2.003134 -0.202918 0.484544 -0.385014
Cl4 1.507082 2.255797 1.413332 -0.130279 -0.256908 -0.079165
Cl5 2.151285 1.774950 1.405431 0.427947 0.357001 -0.082194
Cl6 1.563718 2.150784 1.407015 0.177652 -0.248712 0.166857
Cl7 2.141965 1.865750 1.417274 -0.488743 0.331920 0.020078
Cl8 1.430111 1.388851 2.003134 0.202918 0.484544 0.385014
Cl9 1.507082 2.255797 1.413332 0.130279 -0.256908 0.079165
Cl10 2.151285 1.774950 1.405431 -0.427947 0.357001 0.082194
C1 1.174699 1.315421 1.119609 -0.069482 0.103270 -0.076872
C2 1.242799 1.229358 1.128293 0.042637 0.222133 -0.014152
C3 1.282053 1.230147 1.122766 0.032373 0.200948 -0.053274
C4 1.132180 1.147243 1.255414 -0.082115 0.236251 -0.096993
C5 1.140752 1.261730 1.131452 -0.085273 0.099166 -0.021419
C6 1.174699 1.315421 1.119609 0.069482 0.103270 0.076872
C7 1.242799 1.229358 1.128293 -0.042637 0.222133 0.014152
C8 1.282053 1.230147 1.122766 -0.032373 0.200948 0.053274
C9 1.132180 1.147243 1.255414 0.082115 0.236251 0.096993
C10 1.140752 1.261730 1.131452 0.085273 0.099166 0.021419
N1 1.288136 1.339897 1.245939 0.000791 0.156093 -0.259350
N2 1.288136 1.339897 1.245939 -0.000791 0.156093 0.259350
#end of data_B.cif_140K

data_B.cif_150K

_audit_creation_method 'generated by Molecular-Toolbox 1.0.1' 
_chemical_formula_sum
'Cl10 C10 N2'

_cell_length_a 5.327145 
_cell_length_b 5.176182 
_cell_length_c 15.187944 
_cell_angle_alpha 90.000000 
_cell_angle_beta 100.269826
_cell_angle_gamma 90.000000

_symmetry_space_group_name_H-M  'P1'

 loop_
_atom_site_type_symbol 
_atom_site_label 
_atom_site_fract_x 
_atom_site_fract_y 
_atom_site_fract_z
Cl Cl1 0.116002 0.667576 0.331728
Cl Cl2 0.534482 0.099460 0.323470
Cl Cl3 0.963176 0.177401 0.492013
Cl Cl4 0.967319 0.826104 0.660638
Cl Cl5 0.530312 0.405912 0.654197
Cl Cl6 0.116002 0.332424 0.831728
Cl Cl7 0.534482 0.900540 0.823470
Cl Cl8 0.963176 0.822599 0.992013
Cl Cl9 0.967319 0.173896 0.160638
Cl Cl10 0.530312 0.594088 0.154197
C C1 0.358343 0.720511 0.421131
C C2 0.541989 0.912700 0.416560
C C3 0.541622 0.605938 0.564185
C C4 0.734587 0.947482 0.492154
C C5 0.736502 0.790822 0.568117
C C6 0.358343 0.279489 0.921131
C C7 0.541989 0.087300 0.916560
C C8 0.541622 0.394062 0.064185
C C9 0.734587 0.052518 0.992154
C C10 0.736502 0.209178 0.068117
N N1 0.360765 0.574099 0.492907
N N2 0.360765 0.425901 0.992907
loop_
_atom_site_aniso_label
_atom_site_aniso_B_11
_atom_site_aniso_B_22
_atom_site_aniso_B_33
_atom_site_aniso_B_23
_atom_site_aniso_B_13
_atom_site_aniso_B_12
# Additional Data for B_Aniso: 150.000000
Cl1 1.668119 2.296065 1.500185 -0.190285 -0.267063 -0.178433
Cl2 2.286789 1.991291 1.511233 0.522695 0.354110 -0.021017
Cl3 1.524902 1.481230 2.138939 -0.217919 0.518079 -0.411773
Cl4 1.607409 2.408183 1.507291 -0.139753 -0.275895 -0.084739
Cl5 2.296150 1.893385 1.498600 0.457950 0.381380 -0.087721
Cl6 1.668119 2.296065 1.500185 0.190285 -0.267063 0.178433
Cl7 2.286789 1.991291 1.511233 -0.522695 0.354110 0.021017
Cl8 1.524902 1.481230 2.138939 0.217919 0.518079 0.411773
Cl9 1.607409 2.408183 1.507291 0.139753 -0.275895 0.084739
Cl10 2.296150 1.893385 1.498600 -0.457950 0.381380 0.087721
C1 1.247106 1.396746 1.189091 -0.075798 0.110996 -0.080329
C2 1.320294 1.304367 1.198565 0.043426 0.237769 -0.012457
C3 1.361263 1.305156 1.192248 0.033162 0.214889 -0.054687
C4 1.201290 1.216725 1.335160 -0.089221 0.252800 -0.100591
C5 1.210638 1.339108 1.202514 -0.093959 0.106397 -0.020636
C6 1.247106 1.396746 1.189091 0.075798 0.110996 0.080329
C7 1.320294 1.304367 1.198565 -0.043426 0.237769 0.012457
C8 1.361263 1.305156 1.192248 -0.033162 0.214889 0.054687
C9 1.201290 1.216725 1.335160 0.089221 0.252800 0.100591
C10 1.210638 1.339108 1.202514 0.093959 0.106397 0.020636
N1 1.367815 1.422802 1.325686 -0.001578 0.167979 -0.276087
N2 1.367815 1.422802 1.325686 0.001578 0.167979 0.276087
#end of data_B.cif_150K

data_B.cif_160K

_audit_creation_method 'generated by Molecular-Toolbox 1.0.1' 
_chemical_formula_sum
'Cl10 C10 N2'

_cell_length_a 5.327145 
_cell_length_b 5.176182 
_cell_length_c 15.187944 
_cell_angle_alpha 90.000000 
_cell_angle_beta 100.269826
_cell_angle_gamma 90.000000

_symmetry_space_group_name_H-M  'P1'

 loop_
_atom_site_type_symbol 
_atom_site_label 
_atom_site_fract_x 
_atom_site_fract_y 
_atom_site_fract_z
Cl Cl1 0.116002 0.667576 0.331728
Cl Cl2 0.534482 0.099460 0.323470
Cl Cl3 0.963176 0.177401 0.492013
Cl Cl4 0.967319 0.826104 0.660638
Cl Cl5 0.530312 0.405912 0.654197
Cl Cl6 0.116002 0.332424 0.831728
Cl Cl7 0.534482 0.900540 0.823470
Cl Cl8 0.963176 0.822599 0.992013
Cl Cl9 0.967319 0.173896 0.160638
Cl Cl10 0.530312 0.594088 0.154197
C C1 0.358343 0.720511 0.421131
C C2 0.541989 0.912700 0.416560
C C3 0.541622 0.605938 0.564185
C C4 0.734587 0.947482 0.492154
C C5 0.736502 0.790822 0.568117
C C6 0.358343 0.279489 0.921131
C C7 0.541989 0.087300 0.916560
C C8 0.541622 0.394062 0.064185
C C9 0.734587 0.052518 0.992154
C C10 0.736502 0.209178 0.068117
N N1 0.360765 0.574099 0.492907
N N2 0.360765 0.425901 0.992907
loop_
_atom_site_aniso_label
_atom_site_aniso_B_11
_atom_site_aniso_B_22
_atom_site_aniso_B_33
_atom_site_aniso_B_23
_atom_site_aniso_B_13
_atom_site_aniso_B_12
# Additional Data for B_Aniso: 160.000000
Cl1 1.772823 2.442135 1.594143 -0.202129 -0.284496 -0.189867
Cl2 2.431638 2.116833 1.605981 0.556646 0.376440 -0.022733
Cl3 1.619668 1.572820 2.273956 -0.232131 0.551474 -0.438392
Cl4 1.707736 2.561360 1.601250 -0.148439 -0.294882 -0.089395
Cl5 2.442268 2.013399 1.591769 0.487164 0.404983 -0.094166
Cl6 1.772823 2.442135 1.594143 0.202129 -0.284496 0.189867
Cl7 2.431638 2.116833 1.605981 -0.556646 0.376440 0.022733
Cl8 1.619668 1.572820 2.273956 0.232131 0.551474 0.438392
Cl9 1.707736 2.561360 1.601250 0.148439 -0.294882 0.089395
Cl10 2.442268 2.013399 1.591769 -0.487164 0.404983 0.094166
C1 1.320025 1.478862 1.259362 -0.082115 0.118086 -0.083009
C2 1.397025 1.380165 1.268836 0.044216 0.253405 -0.010763
C3 1.442027 1.380955 1.262520 0.033162 0.228971 -0.056241
C4 1.271165 1.286996 1.414906 -0.097117 0.269348 -0.105107
C5 1.280499 1.417275 1.272785 -0.101854 0.113487 -0.018936
C6 1.320025 1.478862 1.259362 0.082115 0.118086 0.083009
C7 1.397025 1.380165 1.268836 -0.044216 0.253405 0.010763
C8 1.442027 1.380955 1.262520 -0.033162 0.228971 0.056241
C9 1.271165 1.286996 1.414906 0.097117 0.269348 0.105107
C10 1.280499 1.417275 1.272785 0.101854 0.113487 0.018936
N1 1.447218 1.505707 1.405432 -0.003157 0.179089 -0.291907
N2 1.447218 1.505707 1.405432 0.003157 0.179089 0.291907
#end of data_B.cif_160K

data_B.cif_170K

_audit_creation_method 'generated by Molecular-Toolbox 1.0.1' 
_chemical_formula_sum
'Cl10 C10 N2'

_cell_length_a 5.327145 
_cell_length_b 5.176182 
_cell_length_c 15.187944 
_cell_angle_alpha 90.000000 
_cell_angle_beta 100.269826
_cell_angle_gamma 90.000000

_symmetry_space_group_name_H-M  'P1'

 loop_
_atom_site_type_symbol 
_atom_site_label 
_atom_site_fract_x 
_atom_site_fract_y 
_atom_site_fract_z
Cl Cl1 0.116002 0.667576 0.331728
Cl Cl2 0.534482 0.099460 0.323470
Cl Cl3 0.963176 0.177401 0.492013
Cl Cl4 0.967319 0.826104 0.660638
Cl Cl5 0.530312 0.405912 0.654197
Cl Cl6 0.116002 0.332424 0.831728
Cl Cl7 0.534482 0.900540 0.823470
Cl Cl8 0.963176 0.822599 0.992013
Cl Cl9 0.967319 0.173896 0.160638
Cl Cl10 0.530312 0.594088 0.154197
C C1 0.358343 0.720511 0.421131
C C2 0.541989 0.912700 0.416560
C C3 0.541622 0.605938 0.564185
C C4 0.734587 0.947482 0.492154
C C5 0.736502 0.790822 0.568117
C C6 0.358343 0.279489 0.921131
C C7 0.541989 0.087300 0.916560
C C8 0.541622 0.394062 0.064185
C C9 0.734587 0.052518 0.992154
C C10 0.736502 0.209178 0.068117
N N1 0.360765 0.574099 0.492907
N N2 0.360765 0.425901 0.992907
loop_
_atom_site_aniso_label
_atom_site_aniso_B_11
_atom_site_aniso_B_22
_atom_site_aniso_B_33
_atom_site_aniso_B_23
_atom_site_aniso_B_13
_atom_site_aniso_B_12
# Additional Data for B_Aniso: 170.000000
Cl1 1.878014 2.588205 1.688102 -0.214762 -0.302706 -0.201442
Cl2 2.577252 2.243164 1.700729 0.590598 0.398770 -0.023672
Cl3 1.715223 1.665989 2.409761 -0.247133 0.585009 -0.465151
Cl4 1.808852 2.715326 1.695998 -0.157913 -0.313729 -0.094969
Cl5 2.588687 2.132624 1.685727 0.517168 0.429503 -0.099694
Cl6 1.878014 2.588205 1.688102 0.214762 -0.302706 0.201442
Cl7 2.577252 2.243164 1.700729 -0.590598 0.398770 0.023672
Cl8 1.715223 1.665989 2.409761 0.247133 0.585009 0.465151
Cl9 1.808852 2.715326 1.695998 0.157913 -0.313729 0.094969
Cl10 2.588687 2.132624 1.685727 -0.517168 0.429503 0.099694
C1 1.392944 1.560187 1.329634 -0.089221 0.125176 -0.086607
C2 1.474521 1.455964 1.339108 0.045795 0.269041 -0.008927
C3 1.522051 1.457543 1.333581 0.033952 0.243194 -0.057654
C4 1.340552 1.356478 1.494653 -0.104223 0.286673 -0.109481
C5 1.350386 1.495442 1.343846 -0.109750 0.120718 -0.018013
C6 1.392944 1.560187 1.329634 0.089221 0.125176 0.086607
C7 1.474521 1.455964 1.339108 -0.045795 0.269041 0.008927
C8 1.522051 1.457543 1.333581 -0.033952 0.243194 0.057654
C9 1.340552 1.356478 1.494653 0.104223 0.286673 0.109481
C10 1.350386 1.495442 1.343846 0.109750 0.120718 0.018013
N1 1.528175 1.588612 1.485968 -0.004736 0.190340 -0.308504
N2 1.528175 1.588612 1.485968 0.004736 0.190340 0.308504
#end of data_B.cif_170K

data_B.cif_180K

_audit_creation_method 'generated by Molecular-Toolbox 1.0.1' 
_chemical_formula_sum
'Cl10 C10 N2'

_cell_length_a 5.327145 
_cell_length_b 5.176182 
_cell_length_c 15.187944 
_cell_angle_alpha 90.000000 
_cell_angle_beta 100.269826
_cell_angle_gamma 90.000000

_symmetry_space_group_name_H-M  'P1'

 loop_
_atom_site_type_symbol 
_atom_site_label 
_atom_site_fract_x 
_atom_site_fract_y 
_atom_site_fract_z
Cl Cl1 0.116002 0.667576 0.331728
Cl Cl2 0.534482 0.099460 0.323470
Cl Cl3 0.963176 0.177401 0.492013
Cl Cl4 0.967319 0.826104 0.660638
Cl Cl5 0.530312 0.405912 0.654197
Cl Cl6 0.116002 0.332424 0.831728
Cl Cl7 0.534482 0.900540 0.823470
Cl Cl8 0.963176 0.822599 0.992013
Cl Cl9 0.967319 0.173896 0.160638
Cl Cl10 0.530312 0.594088 0.154197
C C1 0.358343 0.720511 0.421131
C C2 0.541989 0.912700 0.416560
C C3 0.541622 0.605938 0.564185
C C4 0.734587 0.947482 0.492154
C C5 0.736502 0.790822 0.568117
C C6 0.358343 0.279489 0.921131
C C7 0.541989 0.087300 0.916560
C C8 0.541622 0.394062 0.064185
C C9 0.734587 0.052518 0.992154
C C10 0.736502 0.209178 0.068117
N N1 0.360765 0.574099 0.492907
N N2 0.360765 0.425901 0.992907
loop_
_atom_site_aniso_label
_atom_site_aniso_B_11
_atom_site_aniso_B_22
_atom_site_aniso_B_33
_atom_site_aniso_B_23
_atom_site_aniso_B_13
_atom_site_aniso_B_12
# Additional Data for B_Aniso: 180.000000
Cl1 1.983204 2.735065 1.782061 -0.227395 -0.320916 -0.213018
Cl2 2.723932 2.369495 1.796267 0.625339 0.422018 -0.025247
Cl3 1.810527 1.758369 2.546356 -0.261345 0.617908 -0.491769
Cl4 1.909969 2.869291 1.790747 -0.167388 -0.332575 -0.100543
Cl5 2.735107 2.252639 1.779686 0.547172 0.454023 -0.105221
Cl6 1.983204 2.735065 1.782061 0.227395 -0.320916 0.213018
Cl7 2.723932 2.369495 1.796267 -0.625339 0.422018 0.025247
Cl8 1.810527 1.758369 2.546356 0.261345 0.617908 0.491769
Cl9 1.909969 2.869291 1.790747 0.167388 -0.332575 0.100543
Cl10 2.735107 2.252639 1.779686 -0.547172 0.454023 0.105221
C1 1.465863 1.643092 1.399906 -0.095537 0.132266 -0.090064
C2 1.552318 1.531763 1.410169 0.047374 0.285594 -0.007092
C3 1.602815 1.533342 1.403852 0.034741 0.257276 -0.059067
C4 1.410427 1.426750 1.574399 -0.112118 0.303222 -0.113997
C5 1.420760 1.573610 1.414908 -0.116856 0.127171 -0.016949
C6 1.465863 1.643092 1.399906 0.095537 0.132266 0.090064
C7 1.552318 1.531763 1.410169 -0.047374 0.285594 0.007092
C8 1.602815 1.533342 1.403852 -0.034741 0.257276 0.059067
C9 1.410427 1.426750 1.574399 0.112118 0.303222 0.113997
C10 1.420760 1.573610 1.414908 0.116856 0.127171 0.016949
N1 1.608342 1.672306 1.565715 -0.007105 0.201450 -0.326019
N2 1.608342 1.672306 1.565715 0.007105 0.201450 0.326019
#end of data_B.cif_180K

data_B.cif_190K

_audit_creation_method 'generated by Molecular-Toolbox 1.0.1' 
_chemical_formula_sum
'Cl10 C10 N2'

_cell_length_a 5.327145 
_cell_length_b 5.176182 
_cell_length_c 15.187944 
_cell_angle_alpha 90.000000 
_cell_angle_beta 100.269826
_cell_angle_gamma 90.000000

_symmetry_space_group_name_H-M  'P1'

 loop_
_atom_site_type_symbol 
_atom_site_label 
_atom_site_fract_x 
_atom_site_fract_y 
_atom_site_fract_z
Cl Cl1 0.116002 0.667576 0.331728
Cl Cl2 0.534482 0.099460 0.323470
Cl Cl3 0.963176 0.177401 0.492013
Cl Cl4 0.967319 0.826104 0.660638
Cl Cl5 0.530312 0.405912 0.654197
Cl Cl6 0.116002 0.332424 0.831728
Cl Cl7 0.534482 0.900540 0.823470
Cl Cl8 0.963176 0.822599 0.992013
Cl Cl9 0.967319 0.173896 0.160638
Cl Cl10 0.530312 0.594088 0.154197
C C1 0.358343 0.720511 0.421131
C C2 0.541989 0.912700 0.416560
C C3 0.541622 0.605938 0.564185
C C4 0.734587 0.947482 0.492154
C C5 0.736502 0.790822 0.568117
C C6 0.358343 0.279489 0.921131
C C7 0.541989 0.087300 0.916560
C C8 0.541622 0.394062 0.064185
C C9 0.734587 0.052518 0.992154
C C10 0.736502 0.209178 0.068117
N N1 0.360765 0.574099 0.492907
N N2 0.360765 0.425901 0.992907
loop_
_atom_site_aniso_label
_atom_site_aniso_B_11
_atom_site_aniso_B_22
_atom_site_aniso_B_33
_atom_site_aniso_B_23
_atom_site_aniso_B_13
_atom_site_aniso_B_12
# Additional Data for B_Aniso: 190.000000
Cl1 2.088908 2.881135 1.876810 -0.240028 -0.339762 -0.224593
Cl2 2.869545 2.496615 1.891015 0.659290 0.444349 -0.026186
Cl3 1.906871 1.851538 2.682952 -0.276347 0.651584 -0.518528
Cl4 2.011110 3.023257 1.886285 -0.176863 -0.351280 -0.106117
Cl5 2.882039 2.373442 1.874434 0.577175 0.477907 -0.110749
Cl6 2.088908 2.881135 1.876810 0.240028 -0.339762 0.224593
Cl7 2.869545 2.496615 1.891015 -0.659290 0.444349 0.026186
Cl8 1.906871 1.851538 2.682952 0.276347 0.651584 0.518528
Cl9 2.011110 3.023257 1.886285 0.176863 -0.351280 0.106117
Cl10 2.882039 2.373442 1.874434 -0.577175 0.477907 0.110749
C1 1.538783 1.725207 1.470177 -0.101854 0.139356 -0.092744
C2 1.630326 1.607561 1.481230 0.048953 0.300594 -0.006034
C3 1.683579 1.609930 1.474124 0.036320 0.271358 -0.061116
C4 1.481092 1.497811 1.654935 -0.119224 0.319911 -0.119148
C5 1.491410 1.651777 1.485969 -0.124752 0.134402 -0.016026
C6 1.538783 1.725207 1.470177 0.101854 0.139356 0.092744
C7 1.630326 1.607561 1.481230 -0.048953 0.300594 0.006034
C8 1.683579 1.609930 1.474124 -0.036320 0.271358 0.061116
C9 1.481092 1.497811 1.654935 0.119224 0.319911 0.119148
C10 1.491410 1.651777 1.485969 0.124752 0.134402 0.016026
N1 1.689299 1.756000 1.646251 -0.008684 0.212700 -0.342616
N2 1.689299 1.756000 1.646251 0.008684 0.212700 0.342616
#end of data_B.cif_190K

data_B.cif_200K

_audit_creation_method 'generated by Molecular-Toolbox 1.0.1' 
_chemical_formula_sum
'Cl10 C10 N2'

_cell_length_a 5.327145 
_cell_length_b 5.176182 
_cell_length_c 15.187944 
_cell_angle_alpha 90.000000 
_cell_angle_beta 100.269826
_cell_angle_gamma 90.000000

_symmetry_space_group_name_H-M  'P1'

 loop_
_atom_site_type_symbol 
_atom_site_label 
_atom_site_fract_x 
_atom_site_fract_y 
_atom_site_fract_z
Cl Cl1 0.116002 0.667576 0.331728
Cl Cl2 0.534482 0.099460 0.323470
Cl Cl3 0.963176 0.177401 0.492013
Cl Cl4 0.967319 0.826104 0.660638
Cl Cl5 0.530312 0.405912 0.654197
Cl Cl6 0.116002 0.332424 0.831728
Cl Cl7 0.534482 0.900540 0.823470
Cl Cl8 0.963176 0.822599 0.992013
Cl Cl9 0.967319 0.173896 0.160638
Cl Cl10 0.530312 0.594088 0.154197
C C1 0.358343 0.720511 0.421131
C C2 0.541989 0.912700 0.416560
C C3 0.541622 0.605938 0.564185
C C4 0.734587 0.947482 0.492154
C C5 0.736502 0.790822 0.568117
C C6 0.358343 0.279489 0.921131
C C7 0.541989 0.087300 0.916560
C C8 0.541622 0.394062 0.064185
C C9 0.734587 0.052518 0.992154
C C10 0.736502 0.209178 0.068117
N N1 0.360765 0.574099 0.492907
N N2 0.360765 0.425901 0.992907
loop_
_atom_site_aniso_label
_atom_site_aniso_B_11
_atom_site_aniso_B_22
_atom_site_aniso_B_33
_atom_site_aniso_B_23
_atom_site_aniso_B_13
_atom_site_aniso_B_12
# Additional Data for B_Aniso: 200.000000
Cl1 2.194099 3.028784 1.970769 -0.252661 -0.357972 -0.236169
Cl2 3.015948 2.622946 1.986553 0.694031 0.466820 -0.027762
Cl3 2.003216 1.944707 2.819547 -0.290559 0.685260 -0.545147
Cl4 2.112991 3.178013 1.981033 -0.186338 -0.370126 -0.111691
Cl5 3.028458 2.493457 1.968393 0.607179 0.502428 -0.117054
Cl6 2.194099 3.028784 1.970769 0.252661 -0.357972 0.236169
Cl7 3.015948 2.622946 1.986553 -0.694031 0.466820 0.027762
Cl8 2.003216 1.944707 2.819547 0.290559 0.685260 0.545147
Cl9 2.112991 3.178013 1.981033 0.186338 -0.370126 0.111691
Cl10 3.028458 2.493457 1.968393 -0.607179 0.502428 0.117054
C1 1.612491 1.808112 1.541239 -0.108171 0.146586 -0.096200
C2 1.707847 1.684149 1.552291 0.050532 0.316371 -0.004198
C3 1.764855 1.686518 1.545185 0.037110 0.284804 -0.062529
C4 1.550967 1.568083 1.734681 -0.126330 0.336459 -0.123523
C5 1.561784 1.730734 1.557030 -0.132648 0.140856 -0.015103
C6 1.612491 1.808112 1.541239 0.108171 0.146586 0.096200
C7 1.707847 1.684149 1.552291 -0.050532 0.316371 0.004198
C8 1.764855 1.686518 1.545185 -0.037110 0.284804 0.062529
C9 1.550967 1.568083 1.734681 0.126330 0.336459 0.123523
C10 1.561784 1.730734 1.557030 0.132648 0.140856 0.015103
N1 1.770231 1.839694 1.725997 -0.010263 0.223810 -0.359989
N2 1.770231 1.839694 1.725997 0.010263 0.223810 0.359989
#end of data_B.cif_200K

data_B.cif_210K

_audit_creation_method 'generated by Molecular-Toolbox 1.0.1' 
_chemical_formula_sum
'Cl10 C10 N2'

_cell_length_a 5.327145 
_cell_length_b 5.176182 
_cell_length_c 15.187944 
_cell_angle_alpha 90.000000 
_cell_angle_beta 100.269826
_cell_angle_gamma 90.000000

_symmetry_space_group_name_H-M  'P1'

 loop_
_atom_site_type_symbol 
_atom_site_label 
_atom_site_fract_x 
_atom_site_fract_y 
_atom_site_fract_z
Cl Cl1 0.116002 0.667576 0.331728
Cl Cl2 0.534482 0.099460 0.323470
Cl Cl3 0.963176 0.177401 0.492013
Cl Cl4 0.967319 0.826104 0.660638
Cl Cl5 0.530312 0.405912 0.654197
Cl Cl6 0.116002 0.332424 0.831728
Cl Cl7 0.534482 0.900540 0.823470
Cl Cl8 0.963176 0.822599 0.992013
Cl Cl9 0.967319 0.173896 0.160638
Cl Cl10 0.530312 0.594088 0.154197
C C1 0.358343 0.720511 0.421131
C C2 0.541989 0.912700 0.416560
C C3 0.541622 0.605938 0.564185
C C4 0.734587 0.947482 0.492154
C C5 0.736502 0.790822 0.568117
C C6 0.358343 0.279489 0.921131
C C7 0.541989 0.087300 0.916560
C C8 0.541622 0.394062 0.064185
C C9 0.734587 0.052518 0.992154
C C10 0.736502 0.209178 0.068117
N N1 0.360765 0.574099 0.492907
N N2 0.360765 0.425901 0.992907
loop_
_atom_site_aniso_label
_atom_site_aniso_B_11
_atom_site_aniso_B_22
_atom_site_aniso_B_33
_atom_site_aniso_B_23
_atom_site_aniso_B_13
_atom_site_aniso_B_12
# Additional Data for B_Aniso: 210.000000
Cl1 2.300079 3.175644 2.065517 -0.265294 -0.376042 -0.247744
Cl2 3.162351 2.750067 2.082091 0.727983 0.489291 -0.028701
Cl3 2.098797 2.037876 2.956142 -0.305561 0.718936 -0.571906
Cl4 2.214897 3.332768 2.076571 -0.195023 -0.388832 -0.117124
Cl5 3.176432 2.614261 2.063141 0.637183 0.527089 -0.122581
Cl6 2.300079 3.175644 2.065517 0.265294 -0.376042 0.247744
Cl7 3.162351 2.750067 2.082091 -0.727983 0.489291 0.028701
Cl8 2.098797 2.037876 2.956142 0.305561 0.718936 0.571906
Cl9 2.214897 3.332768 2.076571 0.195023 -0.388832 0.117124
Cl10 3.176432 2.614261 2.063141 -0.637183 0.527089 0.122581
C1 1.685411 1.891016 1.611510 -0.114487 0.153676 -0.100434
C2 1.786132 1.759948 1.623352 0.052112 0.332148 -0.003140
C3 1.845644 1.763106 1.616246 0.037900 0.299027 -0.064719
C4 1.621354 1.639144 1.815217 -0.133437 0.352371 -0.127897
C5 1.633225 1.808901 1.628881 -0.140543 0.148227 -0.014180
C6 1.685411 1.891016 1.611510 0.114487 0.153676 0.100434
C7 1.786132 1.759948 1.623352 -0.052112 0.332148 0.003140
C8 1.845644 1.763106 1.616246 -0.037900 0.299027 0.064719
C9 1.621354 1.639144 1.815217 0.133437 0.352371 0.127897
C10 1.633225 1.808901 1.628881 0.140543 0.148227 0.014180
N1 1.851952 1.924178 1.806533 -0.011842 0.235061 -0.376586
N2 1.851952 1.924178 1.806533 0.011842 0.235061 0.376586
#end of data_B.cif_210K

data_B.cif_220K

_audit_creation_method 'generated by Molecular-Toolbox 1.0.1' 
_chemical_formula_sum
'Cl10 C10 N2'

_cell_length_a 5.327145 
_cell_length_b 5.176182 
_cell_length_c 15.187944 
_cell_angle_alpha 90.000000 
_cell_angle_beta 100.269826
_cell_angle_gamma 90.000000

_symmetry_space_group_name_H-M  'P1'

 loop_
_atom_site_type_symbol 
_atom_site_label 
_atom_site_fract_x 
_atom_site_fract_y 
_atom_site_fract_z
Cl Cl1 0.116002 0.667576 0.331728
Cl Cl2 0.534482 0.099460 0.323470
Cl Cl3 0.963176 0.177401 0.492013
Cl Cl4 0.967319 0.826104 0.660638
Cl Cl5 0.530312 0.405912 0.654197
Cl Cl6 0.116002 0.332424 0.831728
Cl Cl7 0.534482 0.900540 0.823470
Cl Cl8 0.963176 0.822599 0.992013
Cl Cl9 0.967319 0.173896 0.160638
Cl Cl10 0.530312 0.594088 0.154197
C C1 0.358343 0.720511 0.421131
C C2 0.541989 0.912700 0.416560
C C3 0.541622 0.605938 0.564185
C C4 0.734587 0.947482 0.492154
C C5 0.736502 0.790822 0.568117
C C6 0.358343 0.279489 0.921131
C C7 0.541989 0.087300 0.916560
C C8 0.541622 0.394062 0.064185
C C9 0.734587 0.052518 0.992154
C C10 0.736502 0.209178 0.068117
N N1 0.360765 0.574099 0.492907
N N2 0.360765 0.425901 0.992907
loop_
_atom_site_aniso_label
_atom_site_aniso_B_11
_atom_site_aniso_B_22
_atom_site_aniso_B_33
_atom_site_aniso_B_23
_atom_site_aniso_B_13
_atom_site_aniso_B_12
# Additional Data for B_Aniso: 220.000000
Cl1 2.406085 3.323293 2.161055 -0.277927 -0.393970 -0.260096
Cl2 3.309796 2.877977 2.177628 0.762724 0.512539 -0.030276
Cl3 2.195906 2.131045 3.092737 -0.319773 0.752612 -0.599301
Cl4 2.316804 3.487523 2.172110 -0.204498 -0.407537 -0.122698
Cl5 3.323641 2.735065 2.157889 0.667186 0.551750 -0.128109
Cl6 2.406085 3.323293 2.161055 0.277927 -0.393970 0.260096
Cl7 3.309796 2.877977 2.177628 -0.762724 0.512539 0.030276
Cl8 2.195906 2.131045 3.092737 0.319773 0.752612 0.599301
Cl9 2.316804 3.487523 2.172110 0.204498 -0.407537 0.122698
Cl10 3.323641 2.735065 2.157889 -0.667186 0.551750 0.128109
C1 1.758842 1.973921 1.682571 -0.120804 0.160130 -0.103891
C2 1.864417 1.836536 1.694413 0.053691 0.347924 -0.002081
C3 1.927172 1.839694 1.686518 0.038689 0.313109 -0.066909
C4 1.692019 1.710205 1.895753 -0.140543 0.369060 -0.133049
C5 1.704363 1.887858 1.699942 -0.147649 0.154681 -0.013893
C6 1.758842 1.973921 1.682571 0.120804 0.160130 0.103891
C7 1.864417 1.836536 1.694413 -0.053691 0.347924 0.002081
C8 1.927172 1.839694 1.686518 -0.038689 0.313109 0.066909
C9 1.692019 1.710205 1.895753 0.140543 0.369060 0.133049
C10 1.704363 1.887858 1.699942 0.147649 0.154681 0.013893
N1 1.932934 2.008662 1.887859 -0.012631 0.246452 -0.393819
N2 1.932934 2.008662 1.887859 0.012631 0.246452 0.393819
#end of data_B.cif_220K

data_B.cif_230K

_audit_creation_method 'generated by Molecular-Toolbox 1.0.1' 
_chemical_formula_sum
'Cl10 C10 N2'

_cell_length_a 5.327145 
_cell_length_b 5.176182 
_cell_length_c 15.187944 
_cell_angle_alpha 90.000000 
_cell_angle_beta 100.269826
_cell_angle_gamma 90.000000

_symmetry_space_group_name_H-M  'P1'

 loop_
_atom_site_type_symbol 
_atom_site_label 
_atom_site_fract_x 
_atom_site_fract_y 
_atom_site_fract_z
Cl Cl1 0.116002 0.667576 0.331728
Cl Cl2 0.534482 0.099460 0.323470
Cl Cl3 0.963176 0.177401 0.492013
Cl Cl4 0.967319 0.826104 0.660638
Cl Cl5 0.530312 0.405912 0.654197
Cl Cl6 0.116002 0.332424 0.831728
Cl Cl7 0.534482 0.900540 0.823470
Cl Cl8 0.963176 0.822599 0.992013
Cl Cl9 0.967319 0.173896 0.160638
Cl Cl10 0.530312 0.594088 0.154197
C C1 0.358343 0.720511 0.421131
C C2 0.541989 0.912700 0.416560
C C3 0.541622 0.605938 0.564185
C C4 0.734587 0.947482 0.492154
C C5 0.736502 0.790822 0.568117
C C6 0.358343 0.279489 0.921131
C C7 0.541989 0.087300 0.916560
C C8 0.541622 0.394062 0.064185
C C9 0.734587 0.052518 0.992154
C C10 0.736502 0.209178 0.068117
N N1 0.360765 0.574099 0.492907
N N2 0.360765 0.425901 0.992907
loop_
_atom_site_aniso_label
_atom_site_aniso_B_11
_atom_site_aniso_B_22
_atom_site_aniso_B_33
_atom_site_aniso_B_23
_atom_site_aniso_B_13
_atom_site_aniso_B_12
# Additional Data for B_Aniso: 230.000000
Cl1 2.511788 3.470942 2.255804 -0.290560 -0.412816 -0.271671
Cl2 3.456224 3.005097 2.273956 0.796675 0.535150 -0.031992
Cl3 2.291999 2.225004 3.230122 -0.333985 0.785652 -0.625919
Cl4 2.418710 3.642279 2.267648 -0.213973 -0.426243 -0.127494
Cl5 3.470573 2.855869 2.252637 0.697190 0.575634 -0.134413
Cl6 2.511788 3.470942 2.255804 0.290560 -0.412816 0.271671
Cl7 3.456224 3.005097 2.273956 -0.796675 0.535150 0.031992
Cl8 2.291999 2.225004 3.230122 0.333985 0.785652 0.625919
Cl9 2.418710 3.642279 2.267648 0.213973 -0.426243 0.127494
Cl10 3.470573 2.855869 2.252637 -0.697190 0.575634 0.134413
C1 1.832526 2.056826 1.752843 -0.126331 0.167220 -0.107207
C2 1.943190 1.913914 1.765474 0.055270 0.362924 -0.001023
C3 2.008448 1.917072 1.757579 0.040268 0.326555 -0.068182
C4 1.762683 1.781266 1.976289 -0.147649 0.385749 -0.138200
C5 1.774762 1.967604 1.771793 -0.155545 0.161275 -0.012970
C6 1.832526 2.056826 1.752843 0.126331 0.167220 0.107207
C7 1.943190 1.913914 1.765474 -0.055270 0.362924 0.001023
C8 2.008448 1.917072 1.757579 -0.040268 0.326555 0.068182
C9 1.762683 1.781266 1.976289 0.147649 0.385749 0.138200
C10 1.774762 1.967604 1.771793 0.155545 0.161275 0.012970
N1 2.014655 2.093146 1.968395 -0.014210 0.257703 -0.411193
N2 2.014655 2.093146 1.968395 0.014210 0.257703 0.411193
#end of data_B.cif_230K

data_B.cif_240K

_audit_creation_method 'generated by Molecular-Toolbox 1.0.1' 
_chemical_formula_sum
'Cl10 C10 N2'

_cell_length_a 5.327145 
_cell_length_b 5.176182 
_cell_length_c 15.187944 
_cell_angle_alpha 90.000000 
_cell_angle_beta 100.269826
_cell_angle_gamma 90.000000

_symmetry_space_group_name_H-M  'P1'

 loop_
_atom_site_type_symbol 
_atom_site_label 
_atom_site_fract_x 
_atom_site_fract_y 
_atom_site_fract_z
Cl Cl1 0.116002 0.667576 0.331728
Cl Cl2 0.534482 0.099460 0.323470
Cl Cl3 0.963176 0.177401 0.492013
Cl Cl4 0.967319 0.826104 0.660638
Cl Cl5 0.530312 0.405912 0.654197
Cl Cl6 0.116002 0.332424 0.831728
Cl Cl7 0.534482 0.900540 0.823470
Cl Cl8 0.963176 0.822599 0.992013
Cl Cl9 0.967319 0.173896 0.160638
Cl Cl10 0.530312 0.594088 0.154197
C C1 0.358343 0.720511 0.421131
C C2 0.541989 0.912700 0.416560
C C3 0.541622 0.605938 0.564185
C C4 0.734587 0.947482 0.492154
C C5 0.736502 0.790822 0.568117
C C6 0.358343 0.279489 0.921131
C C7 0.541989 0.087300 0.916560
C C8 0.541622 0.394062 0.064185
C C9 0.734587 0.052518 0.992154
C C10 0.736502 0.209178 0.068117
N N1 0.360765 0.574099 0.492907
N N2 0.360765 0.425901 0.992907
loop_
_atom_site_aniso_label
_atom_site_aniso_B_11
_atom_site_aniso_B_22
_atom_site_aniso_B_33
_atom_site_aniso_B_23
_atom_site_aniso_B_13
_atom_site_aniso_B_12
# Additional Data for B_Aniso: 240.000000
Cl1 2.618533 3.618592 2.350552 -0.303193 -0.430886 -0.283247
Cl2 3.603392 3.132218 2.369493 0.831416 0.557622 -0.032790
Cl3 2.388369 2.318173 3.367507 -0.348987 0.819469 -0.653455
Cl4 2.520616 3.797824 2.363186 -0.223447 -0.444948 -0.133068
Cl5 3.618572 2.977462 2.348175 0.727983 0.600436 -0.139800
Cl6 2.618533 3.618592 2.350552 0.303193 -0.430886 0.283247
Cl7 3.603392 3.132218 2.369493 -0.831416 0.557622 0.032790
Cl8 2.388369 2.318173 3.367507 0.348987 0.819469 0.653455
Cl9 2.520616 3.797824 2.363186 0.223447 -0.444948 0.133068
Cl10 3.618572 2.977462 2.348175 -0.727983 0.600436 0.139800
C1 1.906999 2.139730 1.823904 -0.132647 0.174450 -0.110664
C2 2.021500 1.990502 1.837325 0.056849 0.378842 0.000036
C3 2.090002 1.994450 1.828640 0.041058 0.340778 -0.070372
C4 1.833348 1.852327 2.056825 -0.154755 0.402438 -0.143352
C5 1.845925 2.046561 1.843644 -0.162651 0.167870 -0.012684
C6 1.906999 2.139730 1.823904 0.132647 0.174450 0.110664
C7 2.021500 1.990502 1.837325 -0.056849 0.378842 -0.000036
C8 2.090002 1.994450 1.828640 -0.041058 0.340778 0.070372
C9 1.833348 1.852327 2.056825 0.154755 0.402438 0.143352
C10 1.845925 2.046561 1.843644 0.162651 0.167870 0.012684
N1 2.096099 2.177630 2.048931 -0.015789 0.268176 -0.428567
N2 2.096099 2.177630 2.048931 0.015790 0.268176 0.428567
#end of data_B.cif_240K

data_B.cif_250K

_audit_creation_method 'generated by Molecular-Toolbox 1.0.1' 
_chemical_formula_sum
'Cl10 C10 N2'

_cell_length_a 5.327145 
_cell_length_b 5.176182 
_cell_length_c 15.187944 
_cell_angle_alpha 90.000000 
_cell_angle_beta 100.269826
_cell_angle_gamma 90.000000

_symmetry_space_group_name_H-M  'P1'

 loop_
_atom_site_type_symbol 
_atom_site_label 
_atom_site_fract_x 
_atom_site_fract_y 
_atom_site_fract_z
Cl Cl1 0.116002 0.667576 0.331728
Cl Cl2 0.534482 0.099460 0.323470
Cl Cl3 0.963176 0.177401 0.492013
Cl Cl4 0.967319 0.826104 0.660638
Cl Cl5 0.530312 0.405912 0.654197
Cl Cl6 0.116002 0.332424 0.831728
Cl Cl7 0.534482 0.900540 0.823470
Cl Cl8 0.963176 0.822599 0.992013
Cl Cl9 0.967319 0.173896 0.160638
Cl Cl10 0.530312 0.594088 0.154197
C C1 0.358343 0.720511 0.421131
C C2 0.541989 0.912700 0.416560
C C3 0.541622 0.605938 0.564185
C C4 0.734587 0.947482 0.492154
C C5 0.736502 0.790822 0.568117
C C6 0.358343 0.279489 0.921131
C C7 0.541989 0.087300 0.916560
C C8 0.541622 0.394062 0.064185
C C9 0.734587 0.052518 0.992154
C C10 0.736502 0.209178 0.068117
N N1 0.360765 0.574099 0.492907
N N2 0.360765 0.425901 0.992907
loop_
_atom_site_aniso_label
_atom_site_aniso_B_11
_atom_site_aniso_B_22
_atom_site_aniso_B_33
_atom_site_aniso_B_23
_atom_site_aniso_B_13
_atom_site_aniso_B_12
# Additional Data for B_Aniso: 250.000000
Cl1 2.724538 3.766241 2.446091 -0.315826 -0.448814 -0.294822
Cl2 3.750585 3.260128 2.465821 0.866157 0.580233 -0.034366
Cl3 2.485503 2.412131 3.504892 -0.363199 0.853285 -0.680074
Cl4 2.623009 3.952579 2.458724 -0.232133 -0.464430 -0.138501
Cl5 3.766545 3.098266 2.442923 0.757987 0.625097 -0.145327
Cl6 2.724538 3.766241 2.446091 0.315826 -0.448814 0.294822
Cl7 3.750585 3.260128 2.465821 -0.866157 0.580233 0.034366
Cl8 2.485503 2.412131 3.504892 0.363199 0.853285 0.680074
Cl9 2.623009 3.952579 2.458724 0.232133 -0.464430 0.138501
Cl10 3.766545 3.098266 2.442923 -0.757987 0.625097 0.145327
C1 1.980431 2.223424 1.894965 -0.138964 0.180904 -0.114898
C2 2.100549 2.067880 1.908386 0.058428 0.394618 0.001094
C3 2.171303 2.071827 1.900491 0.042637 0.354364 -0.072421
C4 1.903735 1.923389 2.137361 -0.161861 0.418351 -0.147726
C5 1.918130 2.126308 1.915494 -0.170547 0.175241 -0.011760
C6 1.980431 2.223424 1.894965 0.138964 0.180904 0.114898
C7 2.100549 2.067880 1.908386 -0.058428 0.394618 -0.001094
C8 2.171303 2.071827 1.900491 -0.042637 0.354364 0.072421
C9 1.903735 1.923389 2.137361 0.161861 0.418351 0.147726
C10 1.918130 2.126308 1.915494 0.170547 0.175241 0.011760
N1 2.178610 2.262903 2.130256 -0.016579 0.279568 -0.445800
N2 2.178610 2.262903 2.130256 0.016579 0.279568 0.445800
#end of data_B.cif_250K

data_B.cif_260K

_audit_creation_method 'generated by Molecular-Toolbox 1.0.1' 
_chemical_formula_sum
'Cl10 C10 N2'

_cell_length_a 5.327145 
_cell_length_b 5.176182 
_cell_length_c 15.187944 
_cell_angle_alpha 90.000000 
_cell_angle_beta 100.269826
_cell_angle_gamma 90.000000

_symmetry_space_group_name_H-M  'P1'

 loop_
_atom_site_type_symbol 
_atom_site_label 
_atom_site_fract_x 
_atom_site_fract_y 
_atom_site_fract_z
Cl Cl1 0.116002 0.667576 0.331728
Cl Cl2 0.534482 0.099460 0.323470
Cl Cl3 0.963176 0.177401 0.492013
Cl Cl4 0.967319 0.826104 0.660638
Cl Cl5 0.530312 0.405912 0.654197
Cl Cl6 0.116002 0.332424 0.831728
Cl Cl7 0.534482 0.900540 0.823470
Cl Cl8 0.963176 0.822599 0.992013
Cl Cl9 0.967319 0.173896 0.160638
Cl Cl10 0.530312 0.594088 0.154197
C C1 0.358343 0.720511 0.421131
C C2 0.541989 0.912700 0.416560
C C3 0.541622 0.605938 0.564185
C C4 0.734587 0.947482 0.492154
C C5 0.736502 0.790822 0.568117
C C6 0.358343 0.279489 0.921131
C C7 0.541989 0.087300 0.916560
C C8 0.541622 0.394062 0.064185
C C9 0.734587 0.052518 0.992154
C C10 0.736502 0.209178 0.068117
N N1 0.360765 0.574099 0.492907
N N2 0.360765 0.425901 0.992907
loop_
_atom_site_aniso_label
_atom_site_aniso_B_11
_atom_site_aniso_B_22
_atom_site_aniso_B_33
_atom_site_aniso_B_23
_atom_site_aniso_B_13
_atom_site_aniso_B_12
# Additional Data for B_Aniso: 260.000000
Cl1 2.831006 3.913890 2.540839 -0.328459 -0.467660 -0.306398
Cl2 3.898029 3.388038 2.561358 0.900109 0.603481 -0.036082
Cl3 2.582638 2.506090 3.642277 -0.378200 0.887102 -0.707610
Cl4 2.724915 4.108124 2.554262 -0.241607 -0.483136 -0.144075
Cl5 3.914267 3.219860 2.538461 0.787991 0.649122 -0.151632
Cl6 2.831006 3.913890 2.540839 0.328459 -0.467660 0.306398
Cl7 3.898029 3.388038 2.561358 -0.900109 0.603481 0.036082
Cl8 2.582638 2.506090 3.642277 0.378200 0.887102 0.707610
Cl9 2.724915 4.108124 2.554262 0.241607 -0.483136 0.144075
Cl10 3.914267 3.219860 2.538461 -0.787990 0.649122 0.151632
C1 2.054904 2.307119 1.966027 -0.145280 0.188135 -0.118355
C2 2.179347 2.144468 1.980237 0.060007 0.409759 0.002152
C3 2.252856 2.149205 1.971552 0.043427 0.368587 -0.074611
C4 1.975189 1.995239 2.218687 -0.168967 0.435180 -0.152878
C5 1.989294 2.205264 1.987345 -0.177653 0.181836 -0.011474
C6 2.054904 2.307119 1.966027 0.145280 0.188135 0.118355
C7 2.179347 2.144468 1.980237 -0.060007 0.409759 -0.002152
C8 2.252856 2.149205 1.971552 -0.043427 0.368587 0.074611
C9 1.975189 1.995239 2.218687 0.168967 0.435180 0.152878
C10 1.989294 2.205264 1.987345 0.177653 0.181836 0.011474
N1 2.260331 2.347387 2.210792 -0.018158 0.290818 -0.463173
N2 2.260331 2.347387 2.210792 0.018158 0.290818 0.463173
#end of data_B.cif_260K

data_B.cif_270K

_audit_creation_method 'generated by Molecular-Toolbox 1.0.1' 
_chemical_formula_sum
'Cl10 C10 N2'

_cell_length_a 5.327145 
_cell_length_b 5.176182 
_cell_length_c 15.187944 
_cell_angle_alpha 90.000000 
_cell_angle_beta 100.269826
_cell_angle_gamma 90.000000

_symmetry_space_group_name_H-M  'P1'

 loop_
_atom_site_type_symbol 
_atom_site_label 
_atom_site_fract_x 
_atom_site_fract_y 
_atom_site_fract_z
Cl Cl1 0.116002 0.667576 0.331728
Cl Cl2 0.534482 0.099460 0.323470
Cl Cl3 0.963176 0.177401 0.492013
Cl Cl4 0.967319 0.826104 0.660638
Cl Cl5 0.530312 0.405912 0.654197
Cl Cl6 0.116002 0.332424 0.831728
Cl Cl7 0.534482 0.900540 0.823470
Cl Cl8 0.963176 0.822599 0.992013
Cl Cl9 0.967319 0.173896 0.160638
Cl Cl10 0.530312 0.594088 0.154197
C C1 0.358343 0.720511 0.421131
C C2 0.541989 0.912700 0.416560
C C3 0.541622 0.605938 0.564185
C C4 0.734587 0.947482 0.492154
C C5 0.736502 0.790822 0.568117
C C6 0.358343 0.279489 0.921131
C C7 0.541989 0.087300 0.916560
C C8 0.541622 0.394062 0.064185
C C9 0.734587 0.052518 0.992154
C C10 0.736502 0.209178 0.068117
N N1 0.360765 0.574099 0.492907
N N2 0.360765 0.425901 0.992907
loop_
_atom_site_aniso_label
_atom_site_aniso_B_11
_atom_site_aniso_B_22
_atom_site_aniso_B_33
_atom_site_aniso_B_23
_atom_site_aniso_B_13
_atom_site_aniso_B_12
# Additional Data for B_Aniso: 270.000000
Cl1 2.937776 4.061540 2.636377 -0.341092 -0.485589 -0.318750
Cl2 4.045222 3.515948 2.657686 0.934850 0.626093 -0.036880
Cl3 2.679008 2.600049 3.779662 -0.392413 0.920919 -0.734228
Cl4 2.827611 4.263669 2.650590 -0.251082 -0.501701 -0.149649
Cl5 4.062240 3.340664 2.633209 0.817994 0.673783 -0.157160
Cl6 2.937776 4.061540 2.636377 0.341092 -0.485589 0.318750
Cl7 4.045222 3.515948 2.657686 -0.934850 0.626093 0.036880
Cl8 2.679008 2.600049 3.779662 0.392413 0.920919 0.734228
Cl9 2.827611 4.263669 2.650590 0.251082 -0.501701 0.149649
Cl10 4.062240 3.340664 2.633209 -0.817994 0.673783 0.157160
C1 2.128336 2.390813 2.037088 -0.150807 0.194588 -0.122448
C2 2.258421 2.221845 2.052088 0.061586 0.425676 0.003211
C3 2.334897 2.226583 2.042613 0.045006 0.382033 -0.076660
C4 2.045854 2.066300 2.299223 -0.176073 0.451870 -0.158030
C5 2.060457 2.285011 2.059196 -0.184759 0.188430 -0.011187
C6 2.128336 2.390813 2.037088 0.150807 0.194588 0.122448
C7 2.258421 2.221845 2.052088 -0.061586 0.425676 -0.003211
C8 2.334897 2.226583 2.042613 -0.045006 0.382033 0.076660
C9 2.045854 2.066300 2.299223 0.176073 0.451870 0.158030
C10 2.060457 2.285011 2.059196 0.184759 0.188430 0.011187
N1 2.342565 2.432660 2.292118 -0.019737 0.301433 -0.480547
N2 2.342565 2.432660 2.292118 0.019737 0.301433 0.480547
#end of data_B.cif_270K

data_B.cif_280K

_audit_creation_method 'generated by Molecular-Toolbox 1.0.1' 
_chemical_formula_sum
'Cl10 C10 N2'

_cell_length_a 5.327145 
_cell_length_b 5.176182 
_cell_length_c 15.187944 
_cell_angle_alpha 90.000000 
_cell_angle_beta 100.269826
_cell_angle_gamma 90.000000

_symmetry_space_group_name_H-M  'P1'

 loop_
_atom_site_type_symbol 
_atom_site_label 
_atom_site_fract_x 
_atom_site_fract_y 
_atom_site_fract_z
Cl Cl1 0.116002 0.667576 0.331728
Cl Cl2 0.534482 0.099460 0.323470
Cl Cl3 0.963176 0.177401 0.492013
Cl Cl4 0.967319 0.826104 0.660638
Cl Cl5 0.530312 0.405912 0.654197
Cl Cl6 0.116002 0.332424 0.831728
Cl Cl7 0.534482 0.900540 0.823470
Cl Cl8 0.963176 0.822599 0.992013
Cl Cl9 0.967319 0.173896 0.160638
Cl Cl10 0.530312 0.594088 0.154197
C C1 0.358343 0.720511 0.421131
C C2 0.541989 0.912700 0.416560
C C3 0.541622 0.605938 0.564185
C C4 0.734587 0.947482 0.492154
C C5 0.736502 0.790822 0.568117
C C6 0.358343 0.279489 0.921131
C C7 0.541989 0.087300 0.916560
C C8 0.541622 0.394062 0.064185
C C9 0.734587 0.052518 0.992154
C C10 0.736502 0.209178 0.068117
N N1 0.360765 0.574099 0.492907
N N2 0.360765 0.425901 0.992907
loop_
_atom_site_aniso_label
_atom_site_aniso_B_11
_atom_site_aniso_B_22
_atom_site_aniso_B_33
_atom_site_aniso_B_23
_atom_site_aniso_B_13
_atom_site_aniso_B_12
# Additional Data for B_Aniso: 280.000000
Cl1 3.044269 4.209978 2.731915 -0.353725 -0.504294 -0.330325
Cl2 4.192414 3.643858 2.754013 0.969591 0.648705 -0.038455
Cl3 2.775865 2.694007 3.917046 -0.407414 0.953959 -0.760987
Cl4 2.930005 4.419214 2.746128 -0.260557 -0.521183 -0.155223
Cl5 4.210239 3.462257 2.728746 0.848787 0.698585 -0.163323
Cl6 3.044269 4.209978 2.731915 0.353725 -0.504294 0.330325
Cl7 4.192414 3.643858 2.754013 -0.969591 0.648705 0.038455
Cl8 2.775865 2.694007 3.917046 0.407414 0.953959 0.760987
Cl9 2.930005 4.419214 2.746128 0.260557 -0.521183 0.155223
Cl10 4.210239 3.462257 2.728746 -0.848787 0.698585 0.163323
C1 2.202809 2.474507 2.108149 -0.157124 0.201819 -0.125905
C2 2.337194 2.299223 2.123149 0.063955 0.440676 0.004410
C3 2.416475 2.303960 2.114464 0.045795 0.396397 -0.078850
C4 2.117031 2.138151 2.380548 -0.183179 0.467922 -0.163181
C5 2.132385 2.364757 2.131047 -0.192655 0.195025 -0.011041
C6 2.202809 2.474507 2.108149 0.157124 0.201819 0.125905
C7 2.337194 2.299223 2.123149 -0.063955 0.440676 -0.004410
C8 2.416475 2.303960 2.114464 -0.045795 0.396397 0.078850
C9 2.117031 2.138151 2.380548 0.183179 0.467922 0.163181
C10 2.132385 2.364757 2.131047 0.192655 0.195025 0.011041
N1 2.424312 2.517933 2.373443 -0.020527 0.312824 -0.497780
N2 2.424312 2.517933 2.373443 0.020527 0.312824 0.497780
#end of data_B.cif_280K

data_B.cif_290K

_audit_creation_method 'generated by Molecular-Toolbox 1.0.1' 
_chemical_formula_sum
'Cl10 C10 N2'

_cell_length_a 5.327145 
_cell_length_b 5.176182 
_cell_length_c 15.187944 
_cell_angle_alpha 90.000000 
_cell_angle_beta 100.269826
_cell_angle_gamma 90.000000

_symmetry_space_group_name_H-M  'P1'

 loop_
_atom_site_type_symbol 
_atom_site_label 
_atom_site_fract_x 
_atom_site_fract_y 
_atom_site_fract_z
Cl Cl1 0.116002 0.667576 0.331728
Cl Cl2 0.534482 0.099460 0.323470
Cl Cl3 0.963176 0.177401 0.492013
Cl Cl4 0.967319 0.826104 0.660638
Cl Cl5 0.530312 0.405912 0.654197
Cl Cl6 0.116002 0.332424 0.831728
Cl Cl7 0.534482 0.900540 0.823470
Cl Cl8 0.963176 0.822599 0.992013
Cl Cl9 0.967319 0.173896 0.160638
Cl Cl10 0.530312 0.594088 0.154197
C C1 0.358343 0.720511 0.421131
C C2 0.541989 0.912700 0.416560
C C3 0.541622 0.605938 0.564185
C C4 0.734587 0.947482 0.492154
C C5 0.736502 0.790822 0.568117
C C6 0.358343 0.279489 0.921131
C C7 0.541989 0.087300 0.916560
C C8 0.541622 0.394062 0.064185
C C9 0.734587 0.052518 0.992154
C C10 0.736502 0.209178 0.068117
N N1 0.360765 0.574099 0.492907
N N2 0.360765 0.425901 0.992907
loop_
_atom_site_aniso_label
_atom_site_aniso_B_11
_atom_site_aniso_B_22
_atom_site_aniso_B_33
_atom_site_aniso_B_23
_atom_site_aniso_B_13
_atom_site_aniso_B_12
# Additional Data for B_Aniso: 290.000000
Cl1 3.151039 4.358417 2.827453 -0.366358 -0.522223 -0.341900
Cl2 4.340372 3.771768 2.850340 1.003542 0.671317 -0.040171
Cl3 2.873025 2.788755 4.055221 -0.421626 0.987916 -0.788382
Cl4 3.032700 4.574759 2.842455 -0.269242 -0.539748 -0.160656
Cl5 4.359002 3.583851 2.824284 0.878791 0.723386 -0.168851
Cl6 3.151039 4.358417 2.827453 0.366359 -0.522223 0.341900
Cl7 4.340372 3.771768 2.850340 -1.003542 0.671317 0.040171
Cl8 2.873025 2.788755 4.055221 0.421626 0.987916 0.788382
Cl9 3.032700 4.574759 2.842455 0.269242 -0.539748 0.160656
Cl10 4.359002 3.583851 2.824284 -0.878791 0.723386 0.168851
C1 2.277005 2.558201 2.179210 -0.163440 0.208273 -0.130139
C2 2.416268 2.376601 2.194999 0.065534 0.456594 0.004692
C3 2.498516 2.381338 2.185525 0.047374 0.409843 -0.080899
C4 2.188459 2.210002 2.461084 -0.190285 0.484612 -0.168333
C5 2.204313 2.444504 2.202897 -0.199761 0.201619 -0.010754
C6 2.277005 2.558201 2.179210 0.163440 0.208273 0.130139
C7 2.416268 2.376601 2.194999 -0.065534 0.456594 -0.004692
C8 2.498516 2.381338 2.185525 -0.047374 0.409843 0.080899
C9 2.188459 2.210002 2.461084 0.190285 0.484612 0.168333
C10 2.204313 2.444504 2.202897 0.199761 0.201619 0.010754
N1 2.506545 2.603996 2.454769 -0.022106 0.323439 -0.515154
N2 2.506545 2.603996 2.454769 0.022106 0.323439 0.515154
#end of data_B.cif_290K

data_B.cif_300K

_audit_creation_method 'generated by Molecular-Toolbox 1.0.1' 
_chemical_formula_sum
'Cl10 C10 N2'

_cell_length_a 5.327145 
_cell_length_b 5.176182 
_cell_length_c 15.187944 
_cell_angle_alpha 90.000000 
_cell_angle_beta 100.269826
_cell_angle_gamma 90.000000

_symmetry_space_group_name_H-M  'P1'

 loop_
_atom_site_type_symbol 
_atom_site_label 
_atom_site_fract_x 
_atom_site_fract_y 
_atom_site_fract_z
Cl Cl1 0.116002 0.667576 0.331728
Cl Cl2 0.534482 0.099460 0.323470
Cl Cl3 0.963176 0.177401 0.492013
Cl Cl4 0.967319 0.826104 0.660638
Cl Cl5 0.530312 0.405912 0.654197
Cl Cl6 0.116002 0.332424 0.831728
Cl Cl7 0.534482 0.900540 0.823470
Cl Cl8 0.963176 0.822599 0.992013
Cl Cl9 0.967319 0.173896 0.160638
Cl Cl10 0.530312 0.594088 0.154197
C C1 0.358343 0.720511 0.421131
C C2 0.541989 0.912700 0.416560
C C3 0.541622 0.605938 0.564185
C C4 0.734587 0.947482 0.492154
C C5 0.736502 0.790822 0.568117
C C6 0.358343 0.279489 0.921131
C C7 0.541989 0.087300 0.916560
C C8 0.541622 0.394062 0.064185
C C9 0.734587 0.052518 0.992154
C C10 0.736502 0.209178 0.068117
N N1 0.360765 0.574099 0.492907
N N2 0.360765 0.425901 0.992907
loop_
_atom_site_aniso_label
_atom_site_aniso_B_11
_atom_site_aniso_B_22
_atom_site_aniso_B_33
_atom_site_aniso_B_23
_atom_site_aniso_B_13
_atom_site_aniso_B_12
# Additional Data for B_Aniso: 300.000000
Cl1 3.257809 4.506067 2.922991 -0.378992 -0.540151 -0.353476
Cl2 4.487841 3.899678 2.946668 1.038283 0.694706 -0.040970
Cl3 2.970159 2.882714 4.192606 -0.436628 1.021733 -0.815918
Cl4 3.135371 4.730304 2.937993 -0.278717 -0.558453 -0.166230
Cl5 4.506724 3.705444 2.919822 0.908795 0.747411 -0.174378
Cl6 3.257809 4.506067 2.922991 0.378992 -0.540151 0.353476
Cl7 4.487841 3.899678 2.946668 -1.038283 0.694706 0.040970
Cl8 2.970159 2.882714 4.192606 0.436628 1.021733 0.815918
Cl9 3.135371 4.730304 2.937993 0.278717 -0.558453 0.166230
Cl10 4.506724 3.705444 2.919822 -0.908795 0.747411 0.174378
C1 2.351504 2.641896 2.251061 -0.168967 0.215644 -0.134232
C2 2.495066 2.453978 2.266850 0.067113 0.471734 0.005750
C3 2.580859 2.459505 2.257376 0.048164 0.424206 -0.083089
C4 2.259637 2.281853 2.542410 -0.197391 0.500664 -0.173484
C5 2.276241 2.524250 2.274748 -0.206867 0.208214 -0.010467
C6 2.351504 2.641896 2.251061 0.168967 0.215644 0.134232
C7 2.495066 2.453978 2.266850 -0.067113 0.471734 -0.005750
C8 2.580859 2.459505 2.257376 -0.048164 0.424206 0.083089
C9 2.259637 2.281853 2.542410 0.197391 0.500664 0.173484
C10 2.276241 2.524250 2.274748 0.206867 0.208214 0.010467
N1 2.589031 2.689270 2.535305 -0.022895 0.334689 -0.532387
N2 2.589031 2.689270 2.535305 0.022895 0.334689 0.532387
#end of data_B.cif_300K

