data_U.cif-0K

_audit_creation_method 'generated by Molecular-Toolbox 1.0.1' 
_chemical_formula_sum
'Cl10 C10 N2'

_cell_length_a 5.327145 
_cell_length_b 5.176182 
_cell_length_c 15.187944 
_cell_angle_alpha 90.000000 
_cell_angle_beta 100.269826
_cell_angle_gamma 90.000000

_symmetry_space_group_name_H-M  'P1'

 loop_
_atom_site_type_symbol 
_atom_site_label 
_atom_site_fract_x 
_atom_site_fract_y 
_atom_site_fract_z
Cl Cl1 0.116002 0.667576 0.331728
Cl Cl2 0.534482 0.099460 0.323470
Cl Cl3 0.963176 0.177401 0.492013
Cl Cl4 0.967319 0.826104 0.660638
Cl Cl5 0.530312 0.405912 0.654197
Cl Cl6 0.116002 0.332424 0.831728
Cl Cl7 0.534482 0.900540 0.823470
Cl Cl8 0.963176 0.822599 0.992013
Cl Cl9 0.967319 0.173896 0.160638
Cl Cl10 0.530312 0.594088 0.154197
C C1 0.358343 0.720511 0.421131
C C2 0.541989 0.912700 0.416560
C C3 0.541622 0.605938 0.564185
C C4 0.734587 0.947482 0.492154
C C5 0.736502 0.790822 0.568117
C C6 0.358343 0.279489 0.921131
C C7 0.541989 0.087300 0.916560
C C8 0.541622 0.394062 0.064185
C C9 0.734587 0.052518 0.992154
C C10 0.736502 0.209178 0.068117
N N1 0.360765 0.574099 0.492907
N N2 0.360765 0.425901 0.992907
loop_
_atom_site_aniso_label
_atom_site_aniso_U_11
_atom_site_aniso_U_22
_atom_site_aniso_U_33
_atom_site_aniso_U_23
_atom_site_aniso_U_13
_atom_site_aniso_U_12
# Additional Data for U_Aniso: 0.000000
Cl1 0.004574 0.006130 0.004150 -0.000110 -0.000815 -0.000817
Cl2 0.006005 0.005480 0.003950 0.001570 0.000576 -0.000497
Cl3 0.004225 0.004250 0.005330 0.000000 0.000921 -0.001368
Cl4 0.004607 0.006330 0.003940 0.000140 -0.000793 -0.000644
Cl5 0.006131 0.005220 0.004140 0.001530 0.000836 -0.000603
Cl6 0.004574 0.006130 0.004150 0.000110 -0.000815 0.000817
Cl7 0.006005 0.005480 0.003950 -0.001570 0.000576 0.000497
Cl8 0.004225 0.004250 0.005330 -0.000000 0.000921 0.001368
Cl9 0.004607 0.006330 0.003940 -0.000140 -0.000793 0.000644
Cl10 0.006131 0.005220 0.004140 -0.001530 0.000836 0.000603
C1 0.004045 0.004510 0.003700 0.000320 0.000079 -0.000760
C2 0.004209 0.004440 0.003650 0.000590 0.000237 -0.000741
C3 0.004320 0.004330 0.003700 0.000570 0.000335 -0.000715
C4 0.003983 0.004190 0.003810 0.000370 0.000296 -0.000820
C5 0.004101 0.004440 0.003650 0.000410 0.000070 -0.000734
C6 0.004045 0.004510 0.003700 -0.000320 0.000079 0.000760
C7 0.004209 0.004440 0.003650 -0.000590 0.000237 0.000741
C8 0.004320 0.004330 0.003700 -0.000570 0.000335 0.000715
C9 0.003983 0.004190 0.003810 -0.000370 0.000296 0.000820
C10 0.004101 0.004440 0.003650 -0.000410 0.000070 0.000734
N1 0.004605 0.004970 0.003970 0.000700 0.000019 -0.001292
N2 0.004605 0.004970 0.003970 -0.000700 0.000019 0.001292
#end of data_U.cif_0K

data_U.cif-10K

_audit_creation_method 'generated by Molecular-Toolbox 1.0.1' 
_chemical_formula_sum
'Cl10 C10 N2'

_cell_length_a 5.327145 
_cell_length_b 5.176182 
_cell_length_c 15.187944 
_cell_angle_alpha 90.000000 
_cell_angle_beta 100.269826
_cell_angle_gamma 90.000000

_symmetry_space_group_name_H-M  'P1'

 loop_
_atom_site_type_symbol 
_atom_site_label 
_atom_site_fract_x 
_atom_site_fract_y 
_atom_site_fract_z
Cl Cl1 0.116002 0.667576 0.331728
Cl Cl2 0.534482 0.099460 0.323470
Cl Cl3 0.963176 0.177401 0.492013
Cl Cl4 0.967319 0.826104 0.660638
Cl Cl5 0.530312 0.405912 0.654197
Cl Cl6 0.116002 0.332424 0.831728
Cl Cl7 0.534482 0.900540 0.823470
Cl Cl8 0.963176 0.822599 0.992013
Cl Cl9 0.967319 0.173896 0.160638
Cl Cl10 0.530312 0.594088 0.154197
C C1 0.358343 0.720511 0.421131
C C2 0.541989 0.912700 0.416560
C C3 0.541622 0.605938 0.564185
C C4 0.734587 0.947482 0.492154
C C5 0.736502 0.790822 0.568117
C C6 0.358343 0.279489 0.921131
C C7 0.541989 0.087300 0.916560
C C8 0.541622 0.394062 0.064185
C C9 0.734587 0.052518 0.992154
C C10 0.736502 0.209178 0.068117
N N1 0.360765 0.574099 0.492907
N N2 0.360765 0.425901 0.992907
loop_
_atom_site_aniso_label
_atom_site_aniso_U_11
_atom_site_aniso_U_22
_atom_site_aniso_U_33
_atom_site_aniso_U_23
_atom_site_aniso_U_13
_atom_site_aniso_U_12
# Additional Data for U_Aniso: 10.000000
Cl1 0.004726 0.006330 0.004280 -0.000140 -0.000811 -0.000822
Cl2 0.006188 0.005650 0.004100 0.001570 0.000613 -0.000488
Cl3 0.004380 0.004410 0.005510 -0.000040 0.000963 -0.001375
Cl4 0.004734 0.006520 0.004090 0.000110 -0.000806 -0.000640
Cl5 0.006287 0.005400 0.004280 0.001520 0.000852 -0.000595
Cl6 0.004726 0.006330 0.004280 0.000140 -0.000811 0.000822
Cl7 0.006188 0.005650 0.004100 -0.001570 0.000613 0.000488
Cl8 0.004380 0.004410 0.005510 0.000040 0.000963 0.001375
Cl9 0.004734 0.006520 0.004090 -0.000110 -0.000806 0.000640
Cl10 0.006287 0.005400 0.004280 -0.001520 0.000852 0.000595
C1 0.004181 0.004660 0.003830 0.000290 0.000092 -0.000765
C2 0.004355 0.004590 0.003780 0.000570 0.000251 -0.000735
C3 0.004456 0.004480 0.003830 0.000550 0.000348 -0.000709
C4 0.004123 0.004330 0.003950 0.000340 0.000320 -0.000825
C5 0.004228 0.004590 0.003790 0.000380 0.000085 -0.000729
C6 0.004181 0.004660 0.003830 -0.000290 0.000092 0.000765
C7 0.004355 0.004590 0.003780 -0.000570 0.000251 0.000735
C8 0.004456 0.004480 0.003830 -0.000550 0.000348 0.000709
C9 0.004123 0.004330 0.003950 -0.000340 0.000320 0.000825
C10 0.004228 0.004590 0.003790 -0.000380 0.000085 0.000729
N1 0.004742 0.005120 0.004100 0.000670 0.000032 -0.001297
N2 0.004742 0.005120 0.004100 -0.000670 0.000032 0.001297
#end of data_U.cif_10K

data_U.cif-20K

_audit_creation_method 'generated by Molecular-Toolbox 1.0.1' 
_chemical_formula_sum
'Cl10 C10 N2'

_cell_length_a 5.327145 
_cell_length_b 5.176182 
_cell_length_c 15.187944 
_cell_angle_alpha 90.000000 
_cell_angle_beta 100.269826
_cell_angle_gamma 90.000000

_symmetry_space_group_name_H-M  'P1'

 loop_
_atom_site_type_symbol 
_atom_site_label 
_atom_site_fract_x 
_atom_site_fract_y 
_atom_site_fract_z
Cl Cl1 0.116002 0.667576 0.331728
Cl Cl2 0.534482 0.099460 0.323470
Cl Cl3 0.963176 0.177401 0.492013
Cl Cl4 0.967319 0.826104 0.660638
Cl Cl5 0.530312 0.405912 0.654197
Cl Cl6 0.116002 0.332424 0.831728
Cl Cl7 0.534482 0.900540 0.823470
Cl Cl8 0.963176 0.822599 0.992013
Cl Cl9 0.967319 0.173896 0.160638
Cl Cl10 0.530312 0.594088 0.154197
C C1 0.358343 0.720511 0.421131
C C2 0.541989 0.912700 0.416560
C C3 0.541622 0.605938 0.564185
C C4 0.734587 0.947482 0.492154
C C5 0.736502 0.790822 0.568117
C C6 0.358343 0.279489 0.921131
C C7 0.541989 0.087300 0.916560
C C8 0.541622 0.394062 0.064185
C C9 0.734587 0.052518 0.992154
C C10 0.736502 0.209178 0.068117
N N1 0.360765 0.574099 0.492907
N N2 0.360765 0.425901 0.992907
loop_
_atom_site_aniso_label
_atom_site_aniso_U_11
_atom_site_aniso_U_22
_atom_site_aniso_U_33
_atom_site_aniso_U_23
_atom_site_aniso_U_13
_atom_site_aniso_U_12
# Additional Data for U_Aniso: 20.000000
Cl1 0.005310 0.007120 0.004800 -0.000270 -0.000837 -0.000796
Cl2 0.006997 0.006300 0.004680 0.001670 0.000815 -0.000401
Cl3 0.004945 0.004950 0.006340 -0.000200 0.001209 -0.001472
Cl4 0.005261 0.007360 0.004670 -0.000040 -0.000850 -0.000578
Cl5 0.007064 0.006030 0.004800 0.001580 0.001013 -0.000535
Cl6 0.005310 0.007120 0.004800 0.000270 -0.000837 0.000796
Cl7 0.006997 0.006300 0.004680 -0.001670 0.000815 0.000401
Cl8 0.004945 0.004950 0.006340 0.000200 0.001209 0.001472
Cl9 0.005261 0.007360 0.004670 0.000040 -0.000850 0.000578
Cl10 0.007064 0.006030 0.004800 -0.001580 0.001013 0.000535
C1 0.004656 0.005190 0.004270 0.000220 0.000161 -0.000748
C2 0.004859 0.005070 0.004260 0.000540 0.000376 -0.000691
C3 0.004958 0.004970 0.004270 0.000510 0.000437 -0.000686
C4 0.004573 0.004790 0.004490 0.000250 0.000436 -0.000821
C5 0.004678 0.005100 0.004260 0.000280 0.000140 -0.000698
C6 0.004656 0.005190 0.004270 -0.000220 0.000161 0.000748
C7 0.004859 0.005070 0.004260 -0.000540 0.000376 0.000691
C8 0.004958 0.004970 0.004270 -0.000510 0.000437 0.000686
C9 0.004573 0.004790 0.004490 -0.000250 0.000436 0.000821
C10 0.004678 0.005100 0.004260 -0.000280 0.000140 0.000698
N1 0.005235 0.005620 0.004580 0.000610 0.000128 -0.001338
N2 0.005235 0.005620 0.004580 -0.000610 0.000128 0.001338
#end of data_U.cif_20K

data_U.cif-30K

_audit_creation_method 'generated by Molecular-Toolbox 1.0.1' 
_chemical_formula_sum
'Cl10 C10 N2'

_cell_length_a 5.327145 
_cell_length_b 5.176182 
_cell_length_c 15.187944 
_cell_angle_alpha 90.000000 
_cell_angle_beta 100.269826
_cell_angle_gamma 90.000000

_symmetry_space_group_name_H-M  'P1'

 loop_
_atom_site_type_symbol 
_atom_site_label 
_atom_site_fract_x 
_atom_site_fract_y 
_atom_site_fract_z
Cl Cl1 0.116002 0.667576 0.331728
Cl Cl2 0.534482 0.099460 0.323470
Cl Cl3 0.963176 0.177401 0.492013
Cl Cl4 0.967319 0.826104 0.660638
Cl Cl5 0.530312 0.405912 0.654197
Cl Cl6 0.116002 0.332424 0.831728
Cl Cl7 0.534482 0.900540 0.823470
Cl Cl8 0.963176 0.822599 0.992013
Cl Cl9 0.967319 0.173896 0.160638
Cl Cl10 0.530312 0.594088 0.154197
C C1 0.358343 0.720511 0.421131
C C2 0.541989 0.912700 0.416560
C C3 0.541622 0.605938 0.564185
C C4 0.734587 0.947482 0.492154
C C5 0.736502 0.790822 0.568117
C C6 0.358343 0.279489 0.921131
C C7 0.541989 0.087300 0.916560
C C8 0.541622 0.394062 0.064185
C C9 0.734587 0.052518 0.992154
C C10 0.736502 0.209178 0.068117
N N1 0.360765 0.574099 0.492907
N N2 0.360765 0.425901 0.992907
loop_
_atom_site_aniso_label
_atom_site_aniso_U_11
_atom_site_aniso_U_22
_atom_site_aniso_U_33
_atom_site_aniso_U_23
_atom_site_aniso_U_13
_atom_site_aniso_U_12
# Additional Data for U_Aniso: 30.000000
Cl1 0.006190 0.008320 0.005600 -0.000450 -0.000930 -0.000799
Cl2 0.008221 0.007320 0.005530 0.001890 0.001094 -0.000303
Cl3 0.005763 0.005710 0.007580 -0.000420 0.001578 -0.001620
Cl4 0.006081 0.008630 0.005520 -0.000220 -0.000944 -0.000521
Cl5 0.008280 0.007010 0.005590 0.001740 0.001262 -0.000487
Cl6 0.006190 0.008320 0.005600 0.000450 -0.000930 0.000799
Cl7 0.008221 0.007320 0.005530 -0.001890 0.001094 0.000303
Cl8 0.005763 0.005710 0.007580 0.000420 0.001578 0.001620
Cl9 0.006081 0.008630 0.005520 0.000220 -0.000944 0.000521
Cl10 0.008280 0.007010 0.005590 -0.001740 0.001262 0.000487
C1 0.005324 0.005930 0.004910 0.000130 0.000246 -0.000734
C2 0.005569 0.005750 0.004920 0.000510 0.000552 -0.000637
C3 0.005676 0.005660 0.004920 0.000470 0.000582 -0.000664
C4 0.005215 0.005430 0.005250 0.000140 0.000621 -0.000831
C5 0.005305 0.005810 0.004930 0.000160 0.000220 -0.000650
C6 0.005324 0.005930 0.004910 -0.000130 0.000246 0.000734
C7 0.005569 0.005750 0.004920 -0.000510 0.000552 0.000637
C8 0.005676 0.005660 0.004920 -0.000470 0.000582 0.000664
C9 0.005215 0.005430 0.005250 -0.000140 0.000621 0.000831
C10 0.005305 0.005810 0.004930 -0.000160 0.000220 0.000650
N1 0.005939 0.006340 0.005290 0.000530 0.000264 -0.001421
N2 0.005939 0.006340 0.005290 -0.000530 0.000264 0.001421
#end of data_U.cif_30K

data_U.cif-40K

_audit_creation_method 'generated by Molecular-Toolbox 1.0.1' 
_chemical_formula_sum
'Cl10 C10 N2'

_cell_length_a 5.327145 
_cell_length_b 5.176182 
_cell_length_c 15.187944 
_cell_angle_alpha 90.000000 
_cell_angle_beta 100.269826
_cell_angle_gamma 90.000000

_symmetry_space_group_name_H-M  'P1'

 loop_
_atom_site_type_symbol 
_atom_site_label 
_atom_site_fract_x 
_atom_site_fract_y 
_atom_site_fract_z
Cl Cl1 0.116002 0.667576 0.331728
Cl Cl2 0.534482 0.099460 0.323470
Cl Cl3 0.963176 0.177401 0.492013
Cl Cl4 0.967319 0.826104 0.660638
Cl Cl5 0.530312 0.405912 0.654197
Cl Cl6 0.116002 0.332424 0.831728
Cl Cl7 0.534482 0.900540 0.823470
Cl Cl8 0.963176 0.822599 0.992013
Cl Cl9 0.967319 0.173896 0.160638
Cl Cl10 0.530312 0.594088 0.154197
C C1 0.358343 0.720511 0.421131
C C2 0.541989 0.912700 0.416560
C C3 0.541622 0.605938 0.564185
C C4 0.734587 0.947482 0.492154
C C5 0.736502 0.790822 0.568117
C C6 0.358343 0.279489 0.921131
C C7 0.541989 0.087300 0.916560
C C8 0.541622 0.394062 0.064185
C C9 0.734587 0.052518 0.992154
C C10 0.736502 0.209178 0.068117
N N1 0.360765 0.574099 0.492907
N N2 0.360765 0.425901 0.992907
loop_
_atom_site_aniso_label
_atom_site_aniso_U_11
_atom_site_aniso_U_22
_atom_site_aniso_U_33
_atom_site_aniso_U_23
_atom_site_aniso_U_13
_atom_site_aniso_U_12
# Additional Data for U_Aniso: 40.000000
Cl1 0.007228 0.009760 0.006540 -0.000630 -0.001058 -0.000840
Cl2 0.009676 0.008540 0.006510 0.002180 0.001377 -0.000241
Cl3 0.006712 0.006610 0.008990 -0.000640 0.001977 -0.001826
Cl4 0.007056 0.010150 0.006500 -0.000390 -0.001085 -0.000502
Cl5 0.009723 0.008170 0.006530 0.001970 0.001538 -0.000475
Cl6 0.007228 0.009760 0.006540 0.000630 -0.001058 0.000840
Cl7 0.009676 0.008540 0.006510 -0.002180 0.001377 0.000241
Cl8 0.006712 0.006610 0.008990 0.000640 0.001977 0.001826
Cl9 0.007056 0.010150 0.006500 0.000390 -0.001085 0.000502
Cl10 0.009723 0.008170 0.006530 -0.001970 0.001538 0.000475
C1 0.006083 0.006780 0.005650 0.000030 0.000348 -0.000733
C2 0.006392 0.006530 0.005680 0.000500 0.000757 -0.000580
C3 0.006514 0.006440 0.005660 0.000440 0.000743 -0.000640
C4 0.005942 0.006150 0.006120 0.000020 0.000835 -0.000843
C5 0.006031 0.006620 0.005690 0.000040 0.000316 -0.000603
C6 0.006083 0.006780 0.005650 -0.000030 0.000348 0.000733
C7 0.006392 0.006530 0.005680 -0.000500 0.000757 0.000580
C8 0.006514 0.006440 0.005660 -0.000440 0.000743 0.000640
C9 0.005942 0.006150 0.006120 -0.000020 0.000835 0.000843
C10 0.006031 0.006620 0.005690 -0.000040 0.000316 0.000603
N1 0.006743 0.007150 0.006110 0.000450 0.000420 -0.001524
N2 0.006743 0.007150 0.006110 -0.000450 0.000420 0.001524
#end of data_U.cif_40K

data_U.cif-50K

_audit_creation_method 'generated by Molecular-Toolbox 1.0.1' 
_chemical_formula_sum
'Cl10 C10 N2'

_cell_length_a 5.327145 
_cell_length_b 5.176182 
_cell_length_c 15.187944 
_cell_angle_alpha 90.000000 
_cell_angle_beta 100.269826
_cell_angle_gamma 90.000000

_symmetry_space_group_name_H-M  'P1'

 loop_
_atom_site_type_symbol 
_atom_site_label 
_atom_site_fract_x 
_atom_site_fract_y 
_atom_site_fract_z
Cl Cl1 0.116002 0.667576 0.331728
Cl Cl2 0.534482 0.099460 0.323470
Cl Cl3 0.963176 0.177401 0.492013
Cl Cl4 0.967319 0.826104 0.660638
Cl Cl5 0.530312 0.405912 0.654197
Cl Cl6 0.116002 0.332424 0.831728
Cl Cl7 0.534482 0.900540 0.823470
Cl Cl8 0.963176 0.822599 0.992013
Cl Cl9 0.967319 0.173896 0.160638
Cl Cl10 0.530312 0.594088 0.154197
C C1 0.358343 0.720511 0.421131
C C2 0.541989 0.912700 0.416560
C C3 0.541622 0.605938 0.564185
C C4 0.734587 0.947482 0.492154
C C5 0.736502 0.790822 0.568117
C C6 0.358343 0.279489 0.921131
C C7 0.541989 0.087300 0.916560
C C8 0.541622 0.394062 0.064185
C C9 0.734587 0.052518 0.992154
C C10 0.736502 0.209178 0.068117
N N1 0.360765 0.574099 0.492907
N N2 0.360765 0.425901 0.992907
loop_
_atom_site_aniso_label
_atom_site_aniso_U_11
_atom_site_aniso_U_22
_atom_site_aniso_U_33
_atom_site_aniso_U_23
_atom_site_aniso_U_13
_atom_site_aniso_U_12
# Additional Data for U_Aniso: 50.000000
Cl1 0.008368 0.011320 0.007560 -0.000800 -0.001220 -0.000920
Cl2 0.011245 0.009890 0.007560 0.002520 0.001663 -0.000200
Cl3 0.007739 0.007590 0.010500 -0.000850 0.002384 -0.002070
Cl4 0.008121 0.011800 0.007540 -0.000540 -0.001263 -0.000510
Cl5 0.011305 0.009450 0.007560 0.002250 0.001830 -0.000494
Cl6 0.008368 0.011320 0.007560 0.000800 -0.001220 0.000920
Cl7 0.011245 0.009890 0.007560 -0.002520 0.001663 0.000200
Cl8 0.007739 0.007590 0.010500 0.000850 0.002384 0.002070
Cl9 0.008121 0.011800 0.007540 0.000540 -0.001263 0.000510
Cl10 0.011305 0.009450 0.007560 -0.002250 0.001830 0.000494
C1 0.006888 0.007680 0.006440 -0.000070 0.000450 -0.000741
C2 0.007252 0.007360 0.006490 0.000490 0.000960 -0.000523
C3 0.007415 0.007280 0.006450 0.000420 0.000924 -0.000624
C4 0.006715 0.006910 0.007040 -0.000090 0.001048 -0.000862
C5 0.006805 0.007480 0.006500 -0.000080 0.000411 -0.000555
C6 0.006888 0.007680 0.006440 0.000070 0.000450 0.000741
C7 0.007252 0.007360 0.006490 -0.000490 0.000960 0.000523
C8 0.007415 0.007280 0.006450 -0.000420 0.000924 0.000624
C9 0.006715 0.006910 0.007040 0.000090 0.001048 0.000862
C10 0.006805 0.007480 0.006500 0.000080 0.000411 0.000555
N1 0.007607 0.008030 0.007000 0.000380 0.000589 -0.001654
N2 0.007607 0.008030 0.007000 -0.000380 0.000589 0.001654
#end of data_U.cif_50K

data_U.cif-60K

_audit_creation_method 'generated by Molecular-Toolbox 1.0.1' 
_chemical_formula_sum
'Cl10 C10 N2'

_cell_length_a 5.327145 
_cell_length_b 5.176182 
_cell_length_c 15.187944 
_cell_angle_alpha 90.000000 
_cell_angle_beta 100.269826
_cell_angle_gamma 90.000000

_symmetry_space_group_name_H-M  'P1'

 loop_
_atom_site_type_symbol 
_atom_site_label 
_atom_site_fract_x 
_atom_site_fract_y 
_atom_site_fract_z
Cl Cl1 0.116002 0.667576 0.331728
Cl Cl2 0.534482 0.099460 0.323470
Cl Cl3 0.963176 0.177401 0.492013
Cl Cl4 0.967319 0.826104 0.660638
Cl Cl5 0.530312 0.405912 0.654197
Cl Cl6 0.116002 0.332424 0.831728
Cl Cl7 0.534482 0.900540 0.823470
Cl Cl8 0.963176 0.822599 0.992013
Cl Cl9 0.967319 0.173896 0.160638
Cl Cl10 0.530312 0.594088 0.154197
C C1 0.358343 0.720511 0.421131
C C2 0.541989 0.912700 0.416560
C C3 0.541622 0.605938 0.564185
C C4 0.734587 0.947482 0.492154
C C5 0.736502 0.790822 0.568117
C C6 0.358343 0.279489 0.921131
C C7 0.541989 0.087300 0.916560
C C8 0.541622 0.394062 0.064185
C C9 0.734587 0.052518 0.992154
C C10 0.736502 0.209178 0.068117
N N1 0.360765 0.574099 0.492907
N N2 0.360765 0.425901 0.992907
loop_
_atom_site_aniso_label
_atom_site_aniso_U_11
_atom_site_aniso_U_22
_atom_site_aniso_U_33
_atom_site_aniso_U_23
_atom_site_aniso_U_13
_atom_site_aniso_U_12
# Additional Data for U_Aniso: 60.000000
Cl1 0.009556 0.012970 0.008630 -0.000960 -0.001404 -0.001027
Cl2 0.012899 0.011310 0.008650 0.002880 0.001946 -0.000185
Cl3 0.008816 0.008620 0.012060 -0.001050 0.002800 -0.002342
Cl4 0.009258 0.013540 0.008630 -0.000680 -0.001453 -0.000535
Cl5 0.012952 0.010790 0.008620 0.002560 0.002117 -0.000528
Cl6 0.009556 0.012970 0.008630 0.000960 -0.001404 0.001027
Cl7 0.012899 0.011310 0.008650 -0.002880 0.001946 0.000185
Cl8 0.008816 0.008620 0.012060 0.001050 0.002800 0.002342
Cl9 0.009258 0.013540 0.008630 0.000680 -0.001453 0.000535
Cl10 0.012952 0.010790 0.008620 -0.002560 0.002117 0.000528
C1 0.007733 0.008630 0.007260 -0.000170 0.000556 -0.000749
C2 0.008152 0.008220 0.007310 0.000480 0.001165 -0.000475
C3 0.008343 0.008150 0.007280 0.000410 0.001101 -0.000616
C4 0.007517 0.007710 0.007980 -0.000210 0.001265 -0.000884
C5 0.007607 0.008380 0.007330 -0.000200 0.000510 -0.000508
C6 0.007733 0.008630 0.007260 0.000170 0.000556 0.000749
C7 0.008152 0.008220 0.007310 -0.000480 0.001165 0.000475
C8 0.008343 0.008150 0.007280 -0.000410 0.001101 0.000616
C9 0.007517 0.007710 0.007980 0.000210 0.001265 0.000884
C10 0.007607 0.008380 0.007330 0.000200 0.000510 0.000508
N1 0.008518 0.008960 0.007920 0.000320 0.000753 -0.001803
N2 0.008518 0.008960 0.007920 -0.000320 0.000753 0.001803
#end of data_U.cif_60K

data_U.cif-70K

_audit_creation_method 'generated by Molecular-Toolbox 1.0.1' 
_chemical_formula_sum
'Cl10 C10 N2'

_cell_length_a 5.327145 
_cell_length_b 5.176182 
_cell_length_c 15.187944 
_cell_angle_alpha 90.000000 
_cell_angle_beta 100.269826
_cell_angle_gamma 90.000000

_symmetry_space_group_name_H-M  'P1'

 loop_
_atom_site_type_symbol 
_atom_site_label 
_atom_site_fract_x 
_atom_site_fract_y 
_atom_site_fract_z
Cl Cl1 0.116002 0.667576 0.331728
Cl Cl2 0.534482 0.099460 0.323470
Cl Cl3 0.963176 0.177401 0.492013
Cl Cl4 0.967319 0.826104 0.660638
Cl Cl5 0.530312 0.405912 0.654197
Cl Cl6 0.116002 0.332424 0.831728
Cl Cl7 0.534482 0.900540 0.823470
Cl Cl8 0.963176 0.822599 0.992013
Cl Cl9 0.967319 0.173896 0.160638
Cl Cl10 0.530312 0.594088 0.154197
C C1 0.358343 0.720511 0.421131
C C2 0.541989 0.912700 0.416560
C C3 0.541622 0.605938 0.564185
C C4 0.734587 0.947482 0.492154
C C5 0.736502 0.790822 0.568117
C C6 0.358343 0.279489 0.921131
C C7 0.541989 0.087300 0.916560
C C8 0.541622 0.394062 0.064185
C C9 0.734587 0.052518 0.992154
C C10 0.736502 0.209178 0.068117
N N1 0.360765 0.574099 0.492907
N N2 0.360765 0.425901 0.992907
loop_
_atom_site_aniso_label
_atom_site_aniso_U_11
_atom_site_aniso_U_22
_atom_site_aniso_U_33
_atom_site_aniso_U_23
_atom_site_aniso_U_13
_atom_site_aniso_U_12
# Additional Data for U_Aniso: 70.000000
Cl1 0.010777 0.014670 0.009730 -0.001130 -0.001601 -0.001146
Cl2 0.014603 0.012770 0.009770 0.003270 0.002234 -0.000175
Cl3 0.009919 0.009680 0.013660 -0.001250 0.003213 -0.002624
Cl4 0.010428 0.015340 0.009750 -0.000810 -0.001656 -0.000577
Cl5 0.014658 0.012190 0.009720 0.002890 0.002412 -0.000577
Cl6 0.010777 0.014670 0.009730 0.001130 -0.001601 0.001146
Cl7 0.014603 0.012770 0.009770 -0.003270 0.002234 0.000175
Cl8 0.009919 0.009680 0.013660 0.001250 0.003213 0.002624
Cl9 0.010428 0.015340 0.009750 0.000810 -0.001656 0.000577
Cl10 0.014658 0.012190 0.009720 -0.002890 0.002412 0.000577
C1 0.008590 0.009590 0.008100 -0.000260 0.000647 -0.000765
C2 0.009061 0.009100 0.008160 0.000480 0.001376 -0.000426
C3 0.009290 0.009040 0.008120 0.000400 0.001280 -0.000608
C4 0.008340 0.008530 0.008950 -0.000320 0.001487 -0.000913
C5 0.008427 0.009290 0.008180 -0.000320 0.000602 -0.000470
C6 0.008590 0.009590 0.008100 0.000260 0.000647 0.000765
C7 0.009061 0.009100 0.008160 -0.000480 0.001376 0.000426
C8 0.009290 0.009040 0.008120 -0.000400 0.001280 0.000608
C9 0.008340 0.008530 0.008950 0.000320 0.001487 0.000913
C10 0.008427 0.009290 0.008180 0.000320 0.000602 0.000470
N1 0.009445 0.009910 0.008870 0.000270 0.000912 -0.001959
N2 0.009445 0.009910 0.008870 -0.000270 0.000912 0.001959
#end of data_U.cif_70K

data_U.cif-80K

_audit_creation_method 'generated by Molecular-Toolbox 1.0.1' 
_chemical_formula_sum
'Cl10 C10 N2'

_cell_length_a 5.327145 
_cell_length_b 5.176182 
_cell_length_c 15.187944 
_cell_angle_alpha 90.000000 
_cell_angle_beta 100.269826
_cell_angle_gamma 90.000000

_symmetry_space_group_name_H-M  'P1'

 loop_
_atom_site_type_symbol 
_atom_site_label 
_atom_site_fract_x 
_atom_site_fract_y 
_atom_site_fract_z
Cl Cl1 0.116002 0.667576 0.331728
Cl Cl2 0.534482 0.099460 0.323470
Cl Cl3 0.963176 0.177401 0.492013
Cl Cl4 0.967319 0.826104 0.660638
Cl Cl5 0.530312 0.405912 0.654197
Cl Cl6 0.116002 0.332424 0.831728
Cl Cl7 0.534482 0.900540 0.823470
Cl Cl8 0.963176 0.822599 0.992013
Cl Cl9 0.967319 0.173896 0.160638
Cl Cl10 0.530312 0.594088 0.154197
C C1 0.358343 0.720511 0.421131
C C2 0.541989 0.912700 0.416560
C C3 0.541622 0.605938 0.564185
C C4 0.734587 0.947482 0.492154
C C5 0.736502 0.790822 0.568117
C C6 0.358343 0.279489 0.921131
C C7 0.541989 0.087300 0.916560
C C8 0.541622 0.394062 0.064185
C C9 0.734587 0.052518 0.992154
C C10 0.736502 0.209178 0.068117
N N1 0.360765 0.574099 0.492907
N N2 0.360765 0.425901 0.992907
loop_
_atom_site_aniso_label
_atom_site_aniso_U_11
_atom_site_aniso_U_22
_atom_site_aniso_U_33
_atom_site_aniso_U_23
_atom_site_aniso_U_13
_atom_site_aniso_U_12
# Additional Data for U_Aniso: 80.000000
Cl1 0.012021 0.016410 0.010850 -0.001290 -0.001815 -0.001273
Cl2 0.016329 0.014280 0.010910 0.003670 0.002506 -0.000182
Cl3 0.011049 0.010770 0.015290 -0.001450 0.003621 -0.002925
Cl4 0.011620 0.017170 0.010880 -0.000930 -0.001878 -0.000628
Cl5 0.016404 0.013610 0.010840 0.003230 0.002710 -0.000634
Cl6 0.012021 0.016410 0.010850 0.001290 -0.001815 0.001273
Cl7 0.016329 0.014280 0.010910 -0.003670 0.002506 0.000182
Cl8 0.011049 0.010770 0.015290 0.001450 0.003621 0.002925
Cl9 0.011620 0.017170 0.010880 0.000930 -0.001878 0.000628
Cl10 0.016404 0.013610 0.010840 -0.003230 0.002710 0.000634
C1 0.009471 0.010570 0.008950 -0.000360 0.000749 -0.000782
C2 0.010001 0.010000 0.009020 0.000480 0.001588 -0.000387
C3 0.010257 0.009950 0.008970 0.000390 0.001461 -0.000609
C4 0.009169 0.009360 0.009920 -0.000430 0.001700 -0.000952
C5 0.009256 0.010220 0.009040 -0.000440 0.000697 -0.000433
C6 0.009471 0.010570 0.008950 0.000360 0.000749 0.000782
C7 0.010001 0.010000 0.009020 -0.000480 0.001588 0.000387
C8 0.010257 0.009950 0.008970 -0.000390 0.001461 0.000609
C9 0.009169 0.009360 0.009920 0.000430 0.001700 0.000952
C10 0.009256 0.010220 0.009040 0.000440 0.000697 0.000433
N1 0.010392 0.010880 0.009840 0.000220 0.001075 -0.002126
N2 0.010392 0.010880 0.009840 -0.000220 0.001075 0.002126
#end of data_U.cif_80K

data_U.cif-90K

_audit_creation_method 'generated by Molecular-Toolbox 1.0.1' 
_chemical_formula_sum
'Cl10 C10 N2'

_cell_length_a 5.327145 
_cell_length_b 5.176182 
_cell_length_c 15.187944 
_cell_angle_alpha 90.000000 
_cell_angle_beta 100.269826
_cell_angle_gamma 90.000000

_symmetry_space_group_name_H-M  'P1'

 loop_
_atom_site_type_symbol 
_atom_site_label 
_atom_site_fract_x 
_atom_site_fract_y 
_atom_site_fract_z
Cl Cl1 0.116002 0.667576 0.331728
Cl Cl2 0.534482 0.099460 0.323470
Cl Cl3 0.963176 0.177401 0.492013
Cl Cl4 0.967319 0.826104 0.660638
Cl Cl5 0.530312 0.405912 0.654197
Cl Cl6 0.116002 0.332424 0.831728
Cl Cl7 0.534482 0.900540 0.823470
Cl Cl8 0.963176 0.822599 0.992013
Cl Cl9 0.967319 0.173896 0.160638
Cl Cl10 0.530312 0.594088 0.154197
C C1 0.358343 0.720511 0.421131
C C2 0.541989 0.912700 0.416560
C C3 0.541622 0.605938 0.564185
C C4 0.734587 0.947482 0.492154
C C5 0.736502 0.790822 0.568117
C C6 0.358343 0.279489 0.921131
C C7 0.541989 0.087300 0.916560
C C8 0.541622 0.394062 0.064185
C C9 0.734587 0.052518 0.992154
C C10 0.736502 0.209178 0.068117
N N1 0.360765 0.574099 0.492907
N N2 0.360765 0.425901 0.992907
loop_
_atom_site_aniso_label
_atom_site_aniso_U_11
_atom_site_aniso_U_22
_atom_site_aniso_U_33
_atom_site_aniso_U_23
_atom_site_aniso_U_13
_atom_site_aniso_U_12
# Additional Data for U_Aniso: 90.000000
Cl1 0.013294 0.018170 0.011990 -0.001450 -0.002025 -0.001400
Cl2 0.018097 0.015800 0.012060 0.004070 0.002790 -0.000189
Cl3 0.012202 0.011880 0.016940 -0.001640 0.004043 -0.003244
Cl4 0.012841 0.019030 0.012030 -0.001050 -0.002096 -0.000679
Cl5 0.018169 0.015050 0.011980 0.003580 0.003012 -0.000700
Cl6 0.013294 0.018170 0.011990 0.001450 -0.002025 0.001400
Cl7 0.018097 0.015800 0.012060 -0.004070 0.002790 0.000189
Cl8 0.012202 0.011880 0.016940 0.001640 0.004043 0.003244
Cl9 0.012841 0.019030 0.012030 0.001050 -0.002096 0.000679
Cl10 0.018169 0.015050 0.011980 -0.003580 0.003012 0.000700
C1 0.010359 0.011570 0.009810 -0.000450 0.000844 -0.000808
C2 0.010936 0.010910 0.009880 0.000490 0.001791 -0.000346
C3 0.011234 0.010870 0.009830 0.000390 0.001644 -0.000619
C4 0.010018 0.010210 0.010910 -0.000530 0.001916 -0.000990
C5 0.010105 0.011160 0.009910 -0.000550 0.000793 -0.000403
C6 0.010359 0.011570 0.009810 0.000450 0.000844 0.000808
C7 0.010936 0.010910 0.009880 -0.000490 0.001791 0.000346
C8 0.011234 0.010870 0.009830 -0.000390 0.001644 0.000619
C9 0.010018 0.010210 0.010910 0.000530 0.001916 0.000990
C10 0.010105 0.011160 0.009910 0.000550 0.000793 0.000403
N1 0.011355 0.011870 0.010810 0.000180 0.001229 -0.002310
N2 0.011355 0.011870 0.010810 -0.000180 0.001229 0.002310
#end of data_U.cif_90K

data_U.cif-100K

_audit_creation_method 'generated by Molecular-Toolbox 1.0.1' 
_chemical_formula_sum
'Cl10 C10 N2'

_cell_length_a 5.327145 
_cell_length_b 5.176182 
_cell_length_c 15.187944 
_cell_angle_alpha 90.000000 
_cell_angle_beta 100.269826
_cell_angle_gamma 90.000000

_symmetry_space_group_name_H-M  'P1'

 loop_
_atom_site_type_symbol 
_atom_site_label 
_atom_site_fract_x 
_atom_site_fract_y 
_atom_site_fract_z
Cl Cl1 0.116002 0.667576 0.331728
Cl Cl2 0.534482 0.099460 0.323470
Cl Cl3 0.963176 0.177401 0.492013
Cl Cl4 0.967319 0.826104 0.660638
Cl Cl5 0.530312 0.405912 0.654197
Cl Cl6 0.116002 0.332424 0.831728
Cl Cl7 0.534482 0.900540 0.823470
Cl Cl8 0.963176 0.822599 0.992013
Cl Cl9 0.967319 0.173896 0.160638
Cl Cl10 0.530312 0.594088 0.154197
C C1 0.358343 0.720511 0.421131
C C2 0.541989 0.912700 0.416560
C C3 0.541622 0.605938 0.564185
C C4 0.734587 0.947482 0.492154
C C5 0.736502 0.790822 0.568117
C C6 0.358343 0.279489 0.921131
C C7 0.541989 0.087300 0.916560
C C8 0.541622 0.394062 0.064185
C C9 0.734587 0.052518 0.992154
C C10 0.736502 0.209178 0.068117
N N1 0.360765 0.574099 0.492907
N N2 0.360765 0.425901 0.992907
loop_
_atom_site_aniso_label
_atom_site_aniso_U_11
_atom_site_aniso_U_22
_atom_site_aniso_U_33
_atom_site_aniso_U_23
_atom_site_aniso_U_13
_atom_site_aniso_U_12
# Additional Data for U_Aniso: 100.000000
Cl1 0.014584 0.019960 0.013140 -0.001610 -0.002243 -0.001537
Cl2 0.019876 0.017340 0.013220 0.004490 0.003075 -0.000193
Cl3 0.013362 0.013000 0.018600 -0.001830 0.004458 -0.003564
Cl4 0.014070 0.020910 0.013190 -0.001170 -0.002322 -0.000740
Cl5 0.019961 0.016520 0.013130 0.003940 0.003305 -0.000764
Cl6 0.014584 0.019960 0.013140 0.001610 -0.002243 0.001537
Cl7 0.019876 0.017340 0.013220 -0.004490 0.003075 0.000193
Cl8 0.013362 0.013000 0.018600 0.001830 0.004458 0.003564
Cl9 0.014070 0.020910 0.013190 0.001170 -0.002322 0.000740
Cl10 0.019961 0.016520 0.013130 -0.003940 0.003305 0.000764
C1 0.011246 0.012570 0.010670 -0.000540 0.000938 -0.000844
C2 0.011882 0.011830 0.010750 0.000490 0.001995 -0.000306
C3 0.012221 0.011800 0.010700 0.000390 0.001829 -0.000619
C4 0.010868 0.011060 0.011900 -0.000640 0.002131 -0.001029
C5 0.010964 0.012110 0.010790 -0.000660 0.000891 -0.000374
C6 0.011246 0.012570 0.010670 0.000540 0.000938 0.000844
C7 0.011882 0.011830 0.010750 -0.000490 0.001995 0.000306
C8 0.012221 0.011800 0.010700 -0.000390 0.001829 0.000619
C9 0.010868 0.011060 0.011900 0.000640 0.002131 0.001029
C10 0.010964 0.012110 0.010790 0.000660 0.000891 0.000374
N1 0.012328 0.012870 0.011790 0.000140 0.001384 -0.002494
N2 0.012328 0.012870 0.011790 -0.000140 0.001384 0.002494
#end of data_U.cif_100K

data_U.cif-110K

_audit_creation_method 'generated by Molecular-Toolbox 1.0.1' 
_chemical_formula_sum
'Cl10 C10 N2'

_cell_length_a 5.327145 
_cell_length_b 5.176182 
_cell_length_c 15.187944 
_cell_angle_alpha 90.000000 
_cell_angle_beta 100.269826
_cell_angle_gamma 90.000000

_symmetry_space_group_name_H-M  'P1'

 loop_
_atom_site_type_symbol 
_atom_site_label 
_atom_site_fract_x 
_atom_site_fract_y 
_atom_site_fract_z
Cl Cl1 0.116002 0.667576 0.331728
Cl Cl2 0.534482 0.099460 0.323470
Cl Cl3 0.963176 0.177401 0.492013
Cl Cl4 0.967319 0.826104 0.660638
Cl Cl5 0.530312 0.405912 0.654197
Cl Cl6 0.116002 0.332424 0.831728
Cl Cl7 0.534482 0.900540 0.823470
Cl Cl8 0.963176 0.822599 0.992013
Cl Cl9 0.967319 0.173896 0.160638
Cl Cl10 0.530312 0.594088 0.154197
C C1 0.358343 0.720511 0.421131
C C2 0.541989 0.912700 0.416560
C C3 0.541622 0.605938 0.564185
C C4 0.734587 0.947482 0.492154
C C5 0.736502 0.790822 0.568117
C C6 0.358343 0.279489 0.921131
C C7 0.541989 0.087300 0.916560
C C8 0.541622 0.394062 0.064185
C C9 0.734587 0.052518 0.992154
C C10 0.736502 0.209178 0.068117
N N1 0.360765 0.574099 0.492907
N N2 0.360765 0.425901 0.992907
loop_
_atom_site_aniso_label
_atom_site_aniso_U_11
_atom_site_aniso_U_22
_atom_site_aniso_U_33
_atom_site_aniso_U_23
_atom_site_aniso_U_13
_atom_site_aniso_U_12
# Additional Data for U_Aniso: 110.000000
Cl1 0.015870 0.021760 0.014300 -0.001770 -0.002469 -0.001683
Cl2 0.021671 0.018900 0.014400 0.004910 0.003354 -0.000207
Cl3 0.014542 0.014140 0.020280 -0.002010 0.004875 -0.003881
Cl4 0.015305 0.022810 0.014360 -0.001290 -0.002557 -0.000801
Cl5 0.021766 0.017990 0.014280 0.004310 0.003609 -0.000835
Cl6 0.015870 0.021760 0.014300 0.001770 -0.002469 0.001683
Cl7 0.021671 0.018900 0.014400 -0.004910 0.003354 0.000207
Cl8 0.014542 0.014140 0.020280 0.002010 0.004875 0.003881
Cl9 0.015305 0.022810 0.014360 0.001290 -0.002557 0.000801
Cl10 0.021766 0.017990 0.014280 -0.004310 0.003609 0.000835
C1 0.012153 0.013590 0.011540 -0.000620 0.001034 -0.000868
C2 0.012837 0.012750 0.011630 0.000500 0.002201 -0.000275
C3 0.013214 0.012730 0.011570 0.000390 0.002004 -0.000639
C4 0.011726 0.011920 0.012890 -0.000740 0.002347 -0.001077
C5 0.011832 0.013070 0.011670 -0.000770 0.000988 -0.000344
C6 0.012153 0.013590 0.011540 0.000620 0.001034 0.000868
C7 0.012837 0.012750 0.011630 -0.000500 0.002201 0.000275
C8 0.013214 0.012730 0.011570 -0.000390 0.002004 0.000639
C9 0.011726 0.011920 0.012890 0.000740 0.002347 0.001077
C10 0.011832 0.013070 0.011670 0.000770 0.000988 0.000344
N1 0.013317 0.013880 0.012780 0.000100 0.001531 -0.002688
N2 0.013317 0.013880 0.012780 -0.000100 0.001531 0.002688
#end of data_U.cif_110K

data_U.cif-120K

_audit_creation_method 'generated by Molecular-Toolbox 1.0.1' 
_chemical_formula_sum
'Cl10 C10 N2'

_cell_length_a 5.327145 
_cell_length_b 5.176182 
_cell_length_c 15.187944 
_cell_angle_alpha 90.000000 
_cell_angle_beta 100.269826
_cell_angle_gamma 90.000000

_symmetry_space_group_name_H-M  'P1'

 loop_
_atom_site_type_symbol 
_atom_site_label 
_atom_site_fract_x 
_atom_site_fract_y 
_atom_site_fract_z
Cl Cl1 0.116002 0.667576 0.331728
Cl Cl2 0.534482 0.099460 0.323470
Cl Cl3 0.963176 0.177401 0.492013
Cl Cl4 0.967319 0.826104 0.660638
Cl Cl5 0.530312 0.405912 0.654197
Cl Cl6 0.116002 0.332424 0.831728
Cl Cl7 0.534482 0.900540 0.823470
Cl Cl8 0.963176 0.822599 0.992013
Cl Cl9 0.967319 0.173896 0.160638
Cl Cl10 0.530312 0.594088 0.154197
C C1 0.358343 0.720511 0.421131
C C2 0.541989 0.912700 0.416560
C C3 0.541622 0.605938 0.564185
C C4 0.734587 0.947482 0.492154
C C5 0.736502 0.790822 0.568117
C C6 0.358343 0.279489 0.921131
C C7 0.541989 0.087300 0.916560
C C8 0.541622 0.394062 0.064185
C C9 0.734587 0.052518 0.992154
C C10 0.736502 0.209178 0.068117
N N1 0.360765 0.574099 0.492907
N N2 0.360765 0.425901 0.992907
loop_
_atom_site_aniso_label
_atom_site_aniso_U_11
_atom_site_aniso_U_22
_atom_site_aniso_U_33
_atom_site_aniso_U_23
_atom_site_aniso_U_13
_atom_site_aniso_U_12
# Additional Data for U_Aniso: 120.000000
Cl1 0.017176 0.023580 0.015470 -0.001930 -0.002693 -0.001820
Cl2 0.023485 0.020470 0.015570 0.005330 0.003632 -0.000221
Cl3 0.015722 0.015280 0.021970 -0.002200 0.005294 -0.004210
Cl4 0.016559 0.024720 0.015530 -0.001410 -0.002791 -0.000871
Cl5 0.023581 0.019480 0.015450 0.004680 0.003916 -0.000897
Cl6 0.017176 0.023580 0.015470 0.001930 -0.002693 0.001820
Cl7 0.023485 0.020470 0.015570 -0.005330 0.003632 0.000221
Cl8 0.015722 0.015280 0.021970 0.002200 0.005294 0.004210
Cl9 0.016559 0.024720 0.015530 0.001410 -0.002791 0.000871
Cl10 0.023581 0.019480 0.015450 -0.004680 0.003916 0.000897
C1 0.013051 0.014600 0.012420 -0.000710 0.001132 -0.000904
C2 0.013803 0.013690 0.012510 0.000510 0.002407 -0.000244
C3 0.014221 0.013680 0.012450 0.000400 0.002190 -0.000647
C4 0.012595 0.012780 0.013890 -0.000840 0.002565 -0.001124
C5 0.012698 0.014040 0.012550 -0.000870 0.001076 -0.000313
C6 0.013051 0.014600 0.012420 0.000710 0.001132 0.000904
C7 0.013803 0.013690 0.012510 -0.000510 0.002407 0.000244
C8 0.014221 0.013680 0.012450 -0.000400 0.002190 0.000647
C9 0.012595 0.012780 0.013890 0.000840 0.002565 0.001124
C10 0.012698 0.014040 0.012550 0.000870 0.001076 0.000313
N1 0.014306 0.014900 0.013780 0.000070 0.001679 -0.002880
N2 0.014306 0.014900 0.013780 -0.000070 0.001679 0.002880
#end of data_U.cif_120K

data_U.cif-130K

_audit_creation_method 'generated by Molecular-Toolbox 1.0.1' 
_chemical_formula_sum
'Cl10 C10 N2'

_cell_length_a 5.327145 
_cell_length_b 5.176182 
_cell_length_c 15.187944 
_cell_angle_alpha 90.000000 
_cell_angle_beta 100.269826
_cell_angle_gamma 90.000000

_symmetry_space_group_name_H-M  'P1'

 loop_
_atom_site_type_symbol 
_atom_site_label 
_atom_site_fract_x 
_atom_site_fract_y 
_atom_site_fract_z
Cl Cl1 0.116002 0.667576 0.331728
Cl Cl2 0.534482 0.099460 0.323470
Cl Cl3 0.963176 0.177401 0.492013
Cl Cl4 0.967319 0.826104 0.660638
Cl Cl5 0.530312 0.405912 0.654197
Cl Cl6 0.116002 0.332424 0.831728
Cl Cl7 0.534482 0.900540 0.823470
Cl Cl8 0.963176 0.822599 0.992013
Cl Cl9 0.967319 0.173896 0.160638
Cl Cl10 0.530312 0.594088 0.154197
C C1 0.358343 0.720511 0.421131
C C2 0.541989 0.912700 0.416560
C C3 0.541622 0.605938 0.564185
C C4 0.734587 0.947482 0.492154
C C5 0.736502 0.790822 0.568117
C C6 0.358343 0.279489 0.921131
C C7 0.541989 0.087300 0.916560
C C8 0.541622 0.394062 0.064185
C C9 0.734587 0.052518 0.992154
C C10 0.736502 0.209178 0.068117
N N1 0.360765 0.574099 0.492907
N N2 0.360765 0.425901 0.992907
loop_
_atom_site_aniso_label
_atom_site_aniso_U_11
_atom_site_aniso_U_22
_atom_site_aniso_U_33
_atom_site_aniso_U_23
_atom_site_aniso_U_13
_atom_site_aniso_U_12
# Additional Data for U_Aniso: 130.000000
Cl1 0.018492 0.025410 0.016640 -0.002090 -0.002918 -0.001967
Cl2 0.025300 0.022040 0.016760 0.005760 0.003913 -0.000233
Cl3 0.016913 0.016440 0.023670 -0.002390 0.005716 -0.004539
Cl4 0.017823 0.026640 0.016710 -0.001530 -0.003023 -0.000932
Cl5 0.025402 0.020970 0.016620 0.005050 0.004213 -0.000969
Cl6 0.018492 0.025410 0.016640 0.002090 -0.002918 0.001967
Cl7 0.025300 0.022040 0.016760 -0.005760 0.003913 0.000233
Cl8 0.016913 0.016440 0.023670 0.002390 0.005716 0.004539
Cl9 0.017823 0.026640 0.016710 0.001530 -0.003023 0.000932
Cl10 0.025402 0.020970 0.016620 -0.005050 0.004213 0.000969
C1 0.013964 0.015630 0.013300 -0.000790 0.001220 -0.000938
C2 0.014775 0.014630 0.013400 0.000520 0.002605 -0.000212
C3 0.015224 0.014620 0.013330 0.000400 0.002367 -0.000657
C4 0.013460 0.013660 0.014890 -0.000940 0.002773 -0.001171
C5 0.013573 0.015010 0.013440 -0.000980 0.001166 -0.000293
C6 0.013964 0.015630 0.013300 0.000790 0.001220 0.000938
C7 0.014775 0.014630 0.013400 -0.000520 0.002605 0.000212
C8 0.015224 0.014620 0.013330 -0.000400 0.002367 0.000657
C9 0.013460 0.013660 0.014890 0.000940 0.002773 0.001171
C10 0.013573 0.015010 0.013440 0.000980 0.001166 0.000293
N1 0.015306 0.015940 0.014780 0.000040 0.001828 -0.003083
N2 0.015306 0.015940 0.014780 -0.000040 0.001828 0.003083
#end of data_U.cif_130K

data_U.cif-140K

_audit_creation_method 'generated by Molecular-Toolbox 1.0.1' 
_chemical_formula_sum
'Cl10 C10 N2'

_cell_length_a 5.327145 
_cell_length_b 5.176182 
_cell_length_c 15.187944 
_cell_angle_alpha 90.000000 
_cell_angle_beta 100.269826
_cell_angle_gamma 90.000000

_symmetry_space_group_name_H-M  'P1'

 loop_
_atom_site_type_symbol 
_atom_site_label 
_atom_site_fract_x 
_atom_site_fract_y 
_atom_site_fract_z
Cl Cl1 0.116002 0.667576 0.331728
Cl Cl2 0.534482 0.099460 0.323470
Cl Cl3 0.963176 0.177401 0.492013
Cl Cl4 0.967319 0.826104 0.660638
Cl Cl5 0.530312 0.405912 0.654197
Cl Cl6 0.116002 0.332424 0.831728
Cl Cl7 0.534482 0.900540 0.823470
Cl Cl8 0.963176 0.822599 0.992013
Cl Cl9 0.967319 0.173896 0.160638
Cl Cl10 0.530312 0.594088 0.154197
C C1 0.358343 0.720511 0.421131
C C2 0.541989 0.912700 0.416560
C C3 0.541622 0.605938 0.564185
C C4 0.734587 0.947482 0.492154
C C5 0.736502 0.790822 0.568117
C C6 0.358343 0.279489 0.921131
C C7 0.541989 0.087300 0.916560
C C8 0.541622 0.394062 0.064185
C C9 0.734587 0.052518 0.992154
C C10 0.736502 0.209178 0.068117
N N1 0.360765 0.574099 0.492907
N N2 0.360765 0.425901 0.992907
loop_
_atom_site_aniso_label
_atom_site_aniso_U_11
_atom_site_aniso_U_22
_atom_site_aniso_U_33
_atom_site_aniso_U_23
_atom_site_aniso_U_13
_atom_site_aniso_U_12
# Additional Data for U_Aniso: 140.000000
Cl1 0.019805 0.027240 0.017820 -0.002250 -0.003150 -0.002113
Cl2 0.027128 0.023630 0.017950 0.006190 0.004204 -0.000254
Cl3 0.018113 0.017590 0.025370 -0.002570 0.006137 -0.004876
Cl4 0.019087 0.028570 0.017900 -0.001650 -0.003254 -0.001003
Cl5 0.027246 0.022480 0.017800 0.005420 0.004521 -0.001041
Cl6 0.019805 0.027240 0.017820 0.002250 -0.003150 0.002113
Cl7 0.027128 0.023630 0.017950 -0.006190 0.004204 0.000254
Cl8 0.018113 0.017590 0.025370 0.002570 0.006137 0.004876
Cl9 0.019087 0.028570 0.017900 0.001650 -0.003254 0.001003
Cl10 0.027246 0.022480 0.017800 -0.005420 0.004521 0.001041
C1 0.014878 0.016660 0.014180 -0.000880 0.001308 -0.000974
C2 0.015740 0.015570 0.014290 0.000540 0.002813 -0.000179
C3 0.016237 0.015580 0.014220 0.000410 0.002545 -0.000675
C4 0.014339 0.014530 0.015900 -0.001040 0.002992 -0.001228
C5 0.014448 0.015980 0.014330 -0.001080 0.001256 -0.000271
C6 0.014878 0.016660 0.014180 0.000880 0.001308 0.000974
C7 0.015740 0.015570 0.014290 -0.000540 0.002813 0.000179
C8 0.016237 0.015580 0.014220 -0.000410 0.002545 0.000675
C9 0.014339 0.014530 0.015900 0.001040 0.002992 0.001228
C10 0.014448 0.015980 0.014330 0.001080 0.001256 0.000271
N1 0.016314 0.016970 0.015780 0.000010 0.001977 -0.003285
N2 0.016314 0.016970 0.015780 -0.000010 0.001977 0.003285
#end of data_U.cif_140K

data_U.cif-150K

_audit_creation_method 'generated by Molecular-Toolbox 1.0.1' 
_chemical_formula_sum
'Cl10 C10 N2'

_cell_length_a 5.327145 
_cell_length_b 5.176182 
_cell_length_c 15.187944 
_cell_angle_alpha 90.000000 
_cell_angle_beta 100.269826
_cell_angle_gamma 90.000000

_symmetry_space_group_name_H-M  'P1'

 loop_
_atom_site_type_symbol 
_atom_site_label 
_atom_site_fract_x 
_atom_site_fract_y 
_atom_site_fract_z
Cl Cl1 0.116002 0.667576 0.331728
Cl Cl2 0.534482 0.099460 0.323470
Cl Cl3 0.963176 0.177401 0.492013
Cl Cl4 0.967319 0.826104 0.660638
Cl Cl5 0.530312 0.405912 0.654197
Cl Cl6 0.116002 0.332424 0.831728
Cl Cl7 0.534482 0.900540 0.823470
Cl Cl8 0.963176 0.822599 0.992013
Cl Cl9 0.967319 0.173896 0.160638
Cl Cl10 0.530312 0.594088 0.154197
C C1 0.358343 0.720511 0.421131
C C2 0.541989 0.912700 0.416560
C C3 0.541622 0.605938 0.564185
C C4 0.734587 0.947482 0.492154
C C5 0.736502 0.790822 0.568117
C C6 0.358343 0.279489 0.921131
C C7 0.541989 0.087300 0.916560
C C8 0.541622 0.394062 0.064185
C C9 0.734587 0.052518 0.992154
C C10 0.736502 0.209178 0.068117
N N1 0.360765 0.574099 0.492907
N N2 0.360765 0.425901 0.992907
loop_
_atom_site_aniso_label
_atom_site_aniso_U_11
_atom_site_aniso_U_22
_atom_site_aniso_U_33
_atom_site_aniso_U_23
_atom_site_aniso_U_13
_atom_site_aniso_U_12
# Additional Data for U_Aniso: 150.000000
Cl1 0.021127 0.029080 0.019000 -0.002410 -0.003382 -0.002260
Cl2 0.028963 0.025220 0.019140 0.006620 0.004485 -0.000266
Cl3 0.019313 0.018760 0.027090 -0.002760 0.006562 -0.005215
Cl4 0.020358 0.030500 0.019090 -0.001770 -0.003494 -0.001073
Cl5 0.029081 0.023980 0.018980 0.005800 0.004830 -0.001111
Cl6 0.021127 0.029080 0.019000 0.002410 -0.003382 0.002260
Cl7 0.028963 0.025220 0.019140 -0.006620 0.004485 0.000266
Cl8 0.019313 0.018760 0.027090 0.002760 0.006562 0.005215
Cl9 0.020358 0.030500 0.019090 0.001770 -0.003494 0.001073
Cl10 0.029081 0.023980 0.018980 -0.005800 0.004830 0.001111
C1 0.015795 0.017690 0.015060 -0.000960 0.001406 -0.001017
C2 0.016722 0.016520 0.015180 0.000550 0.003011 -0.000158
C3 0.017241 0.016530 0.015100 0.000420 0.002722 -0.000693
C4 0.015215 0.015410 0.016910 -0.001130 0.003202 -0.001274
C5 0.015333 0.016960 0.015230 -0.001190 0.001348 -0.000261
C6 0.015795 0.017690 0.015060 0.000960 0.001406 0.001017
C7 0.016722 0.016520 0.015180 -0.000550 0.003011 0.000158
C8 0.017241 0.016530 0.015100 -0.000420 0.002722 0.000693
C9 0.015215 0.015410 0.016910 0.001130 0.003202 0.001274
C10 0.015333 0.016960 0.015230 0.001190 0.001348 0.000261
N1 0.017324 0.018020 0.016790 -0.000020 0.002127 -0.003497
N2 0.017324 0.018020 0.016790 0.000020 0.002127 0.003497
#end of data_U.cif_150K

data_U.cif-160K

_audit_creation_method 'generated by Molecular-Toolbox 1.0.1' 
_chemical_formula_sum
'Cl10 C10 N2'

_cell_length_a 5.327145 
_cell_length_b 5.176182 
_cell_length_c 15.187944 
_cell_angle_alpha 90.000000 
_cell_angle_beta 100.269826
_cell_angle_gamma 90.000000

_symmetry_space_group_name_H-M  'P1'

 loop_
_atom_site_type_symbol 
_atom_site_label 
_atom_site_fract_x 
_atom_site_fract_y 
_atom_site_fract_z
Cl Cl1 0.116002 0.667576 0.331728
Cl Cl2 0.534482 0.099460 0.323470
Cl Cl3 0.963176 0.177401 0.492013
Cl Cl4 0.967319 0.826104 0.660638
Cl Cl5 0.530312 0.405912 0.654197
Cl Cl6 0.116002 0.332424 0.831728
Cl Cl7 0.534482 0.900540 0.823470
Cl Cl8 0.963176 0.822599 0.992013
Cl Cl9 0.967319 0.173896 0.160638
Cl Cl10 0.530312 0.594088 0.154197
C C1 0.358343 0.720511 0.421131
C C2 0.541989 0.912700 0.416560
C C3 0.541622 0.605938 0.564185
C C4 0.734587 0.947482 0.492154
C C5 0.736502 0.790822 0.568117
C C6 0.358343 0.279489 0.921131
C C7 0.541989 0.087300 0.916560
C C8 0.541622 0.394062 0.064185
C C9 0.734587 0.052518 0.992154
C C10 0.736502 0.209178 0.068117
N N1 0.360765 0.574099 0.492907
N N2 0.360765 0.425901 0.992907
loop_
_atom_site_aniso_label
_atom_site_aniso_U_11
_atom_site_aniso_U_22
_atom_site_aniso_U_33
_atom_site_aniso_U_23
_atom_site_aniso_U_13
_atom_site_aniso_U_12
# Additional Data for U_Aniso: 160.000000
Cl1 0.022453 0.030930 0.020190 -0.002560 -0.003603 -0.002405
Cl2 0.030797 0.026810 0.020340 0.007050 0.004768 -0.000288
Cl3 0.020513 0.019920 0.028800 -0.002940 0.006984 -0.005552
Cl4 0.021629 0.032440 0.020280 -0.001880 -0.003735 -0.001132
Cl5 0.030932 0.025500 0.020160 0.006170 0.005129 -0.001193
Cl6 0.022453 0.030930 0.020190 0.002560 -0.003603 0.002405
Cl7 0.030797 0.026810 0.020340 -0.007050 0.004768 0.000288
Cl8 0.020513 0.019920 0.028800 0.002940 0.006984 0.005552
Cl9 0.021629 0.032440 0.020280 0.001880 -0.003735 0.001132
Cl10 0.030932 0.025500 0.020160 -0.006170 0.005129 0.001193
C1 0.016718 0.018730 0.015950 -0.001040 0.001496 -0.001051
C2 0.017694 0.017480 0.016070 0.000560 0.003209 -0.000136
C3 0.018263 0.017490 0.015990 0.000420 0.002900 -0.000712
C4 0.016099 0.016300 0.017920 -0.001230 0.003411 -0.001331
C5 0.016218 0.017950 0.016120 -0.001290 0.001437 -0.000240
C6 0.016718 0.018730 0.015950 0.001040 0.001496 0.001051
C7 0.017694 0.017480 0.016070 -0.000560 0.003209 0.000136
C8 0.018263 0.017490 0.015990 -0.000420 0.002900 0.000712
C9 0.016099 0.016300 0.017920 0.001230 0.003411 0.001331
C10 0.016218 0.017950 0.016120 0.001290 0.001437 0.000240
N1 0.018329 0.019070 0.017800 -0.000040 0.002268 -0.003697
N2 0.018329 0.019070 0.017800 0.000040 0.002268 0.003697
#end of data_U.cif_160K

data_U.cif-170K

_audit_creation_method 'generated by Molecular-Toolbox 1.0.1' 
_chemical_formula_sum
'Cl10 C10 N2'

_cell_length_a 5.327145 
_cell_length_b 5.176182 
_cell_length_c 15.187944 
_cell_angle_alpha 90.000000 
_cell_angle_beta 100.269826
_cell_angle_gamma 90.000000

_symmetry_space_group_name_H-M  'P1'

 loop_
_atom_site_type_symbol 
_atom_site_label 
_atom_site_fract_x 
_atom_site_fract_y 
_atom_site_fract_z
Cl Cl1 0.116002 0.667576 0.331728
Cl Cl2 0.534482 0.099460 0.323470
Cl Cl3 0.963176 0.177401 0.492013
Cl Cl4 0.967319 0.826104 0.660638
Cl Cl5 0.530312 0.405912 0.654197
Cl Cl6 0.116002 0.332424 0.831728
Cl Cl7 0.534482 0.900540 0.823470
Cl Cl8 0.963176 0.822599 0.992013
Cl Cl9 0.967319 0.173896 0.160638
Cl Cl10 0.530312 0.594088 0.154197
C C1 0.358343 0.720511 0.421131
C C2 0.541989 0.912700 0.416560
C C3 0.541622 0.605938 0.564185
C C4 0.734587 0.947482 0.492154
C C5 0.736502 0.790822 0.568117
C C6 0.358343 0.279489 0.921131
C C7 0.541989 0.087300 0.916560
C C8 0.541622 0.394062 0.064185
C C9 0.734587 0.052518 0.992154
C C10 0.736502 0.209178 0.068117
N N1 0.360765 0.574099 0.492907
N N2 0.360765 0.425901 0.992907
loop_
_atom_site_aniso_label
_atom_site_aniso_U_11
_atom_site_aniso_U_22
_atom_site_aniso_U_33
_atom_site_aniso_U_23
_atom_site_aniso_U_13
_atom_site_aniso_U_12
# Additional Data for U_Aniso: 170.000000
Cl1 0.023785 0.032780 0.021380 -0.002720 -0.003834 -0.002551
Cl2 0.032641 0.028410 0.021540 0.007480 0.005050 -0.000300
Cl3 0.021724 0.021100 0.030520 -0.003130 0.007409 -0.005891
Cl4 0.022909 0.034390 0.021480 -0.002000 -0.003973 -0.001203
Cl5 0.032786 0.027010 0.021350 0.006550 0.005440 -0.001263
Cl6 0.023785 0.032780 0.021380 0.002720 -0.003834 0.002551
Cl7 0.032641 0.028410 0.021540 -0.007480 0.005050 0.000300
Cl8 0.021724 0.021100 0.030520 0.003130 0.007409 0.005891
Cl9 0.022909 0.034390 0.021480 0.002000 -0.003973 0.001203
Cl10 0.032786 0.027010 0.021350 -0.006550 0.005440 0.001263
C1 0.017642 0.019760 0.016840 -0.001130 0.001585 -0.001097
C2 0.018675 0.018440 0.016960 0.000580 0.003407 -0.000113
C3 0.019277 0.018460 0.016890 0.000430 0.003080 -0.000730
C4 0.016978 0.017180 0.018930 -0.001320 0.003631 -0.001387
C5 0.017103 0.018940 0.017020 -0.001390 0.001529 -0.000228
C6 0.017642 0.019760 0.016840 0.001130 0.001585 0.001097
C7 0.018675 0.018440 0.016960 -0.000580 0.003407 0.000113
C8 0.019277 0.018460 0.016890 -0.000430 0.003080 0.000730
C9 0.016978 0.017180 0.018930 0.001320 0.003631 0.001387
C10 0.017103 0.018940 0.017020 0.001390 0.001529 0.000228
N1 0.019355 0.020120 0.018820 -0.000060 0.002411 -0.003907
N2 0.019355 0.020120 0.018820 0.000060 0.002411 0.003907
#end of data_U.cif_170K

data_U.cif-180K

_audit_creation_method 'generated by Molecular-Toolbox 1.0.1' 
_chemical_formula_sum
'Cl10 C10 N2'

_cell_length_a 5.327145 
_cell_length_b 5.176182 
_cell_length_c 15.187944 
_cell_angle_alpha 90.000000 
_cell_angle_beta 100.269826
_cell_angle_gamma 90.000000

_symmetry_space_group_name_H-M  'P1'

 loop_
_atom_site_type_symbol 
_atom_site_label 
_atom_site_fract_x 
_atom_site_fract_y 
_atom_site_fract_z
Cl Cl1 0.116002 0.667576 0.331728
Cl Cl2 0.534482 0.099460 0.323470
Cl Cl3 0.963176 0.177401 0.492013
Cl Cl4 0.967319 0.826104 0.660638
Cl Cl5 0.530312 0.405912 0.654197
Cl Cl6 0.116002 0.332424 0.831728
Cl Cl7 0.534482 0.900540 0.823470
Cl Cl8 0.963176 0.822599 0.992013
Cl Cl9 0.967319 0.173896 0.160638
Cl Cl10 0.530312 0.594088 0.154197
C C1 0.358343 0.720511 0.421131
C C2 0.541989 0.912700 0.416560
C C3 0.541622 0.605938 0.564185
C C4 0.734587 0.947482 0.492154
C C5 0.736502 0.790822 0.568117
C C6 0.358343 0.279489 0.921131
C C7 0.541989 0.087300 0.916560
C C8 0.541622 0.394062 0.064185
C C9 0.734587 0.052518 0.992154
C C10 0.736502 0.209178 0.068117
N N1 0.360765 0.574099 0.492907
N N2 0.360765 0.425901 0.992907
loop_
_atom_site_aniso_label
_atom_site_aniso_U_11
_atom_site_aniso_U_22
_atom_site_aniso_U_33
_atom_site_aniso_U_23
_atom_site_aniso_U_13
_atom_site_aniso_U_12
# Additional Data for U_Aniso: 180.000000
Cl1 0.025118 0.034640 0.022570 -0.002880 -0.004064 -0.002698
Cl2 0.034499 0.030010 0.022750 0.007920 0.005345 -0.000320
Cl3 0.022931 0.022270 0.032250 -0.003310 0.007826 -0.006228
Cl4 0.024190 0.036340 0.022680 -0.002120 -0.004212 -0.001273
Cl5 0.034641 0.028530 0.022540 0.006930 0.005750 -0.001333
Cl6 0.025118 0.034640 0.022570 0.002880 -0.004064 0.002698
Cl7 0.034499 0.030010 0.022750 -0.007920 0.005345 0.000320
Cl8 0.022931 0.022270 0.032250 0.003310 0.007826 0.006228
Cl9 0.024190 0.036340 0.022680 0.002120 -0.004212 0.001273
Cl10 0.034641 0.028530 0.022540 -0.006930 0.005750 0.001333
C1 0.018565 0.020810 0.017730 -0.001210 0.001675 -0.001141
C2 0.019660 0.019400 0.017860 0.000600 0.003617 -0.000090
C3 0.020300 0.019420 0.017780 0.000440 0.003258 -0.000748
C4 0.017863 0.018070 0.019940 -0.001420 0.003840 -0.001444
C5 0.017994 0.019930 0.017920 -0.001480 0.001611 -0.000215
C6 0.018565 0.020810 0.017730 0.001210 0.001675 0.001141
C7 0.019660 0.019400 0.017860 -0.000600 0.003617 0.000090
C8 0.020300 0.019420 0.017780 -0.000440 0.003258 0.000748
C9 0.017863 0.018070 0.019940 0.001420 0.003840 0.001444
C10 0.017994 0.019930 0.017920 0.001480 0.001611 0.000215
N1 0.020370 0.021180 0.019830 -0.000090 0.002551 -0.004129
N2 0.020370 0.021180 0.019830 0.000090 0.002551 0.004129
#end of data_U.cif_180K

data_U.cif-190K

_audit_creation_method 'generated by Molecular-Toolbox 1.0.1' 
_chemical_formula_sum
'Cl10 C10 N2'

_cell_length_a 5.327145 
_cell_length_b 5.176182 
_cell_length_c 15.187944 
_cell_angle_alpha 90.000000 
_cell_angle_beta 100.269826
_cell_angle_gamma 90.000000

_symmetry_space_group_name_H-M  'P1'

 loop_
_atom_site_type_symbol 
_atom_site_label 
_atom_site_fract_x 
_atom_site_fract_y 
_atom_site_fract_z
Cl Cl1 0.116002 0.667576 0.331728
Cl Cl2 0.534482 0.099460 0.323470
Cl Cl3 0.963176 0.177401 0.492013
Cl Cl4 0.967319 0.826104 0.660638
Cl Cl5 0.530312 0.405912 0.654197
Cl Cl6 0.116002 0.332424 0.831728
Cl Cl7 0.534482 0.900540 0.823470
Cl Cl8 0.963176 0.822599 0.992013
Cl Cl9 0.967319 0.173896 0.160638
Cl Cl10 0.530312 0.594088 0.154197
C C1 0.358343 0.720511 0.421131
C C2 0.541989 0.912700 0.416560
C C3 0.541622 0.605938 0.564185
C C4 0.734587 0.947482 0.492154
C C5 0.736502 0.790822 0.568117
C C6 0.358343 0.279489 0.921131
C C7 0.541989 0.087300 0.916560
C C8 0.541622 0.394062 0.064185
C C9 0.734587 0.052518 0.992154
C C10 0.736502 0.209178 0.068117
N N1 0.360765 0.574099 0.492907
N N2 0.360765 0.425901 0.992907
loop_
_atom_site_aniso_label
_atom_site_aniso_U_11
_atom_site_aniso_U_22
_atom_site_aniso_U_33
_atom_site_aniso_U_23
_atom_site_aniso_U_13
_atom_site_aniso_U_12
# Additional Data for U_Aniso: 190.000000
Cl1 0.026456 0.036490 0.023770 -0.003040 -0.004303 -0.002845
Cl2 0.036343 0.031620 0.023950 0.008350 0.005628 -0.000332
Cl3 0.024151 0.023450 0.033980 -0.003500 0.008252 -0.006567
Cl4 0.025471 0.038290 0.023890 -0.002240 -0.004449 -0.001344
Cl5 0.036501 0.030060 0.023740 0.007310 0.006053 -0.001403
Cl6 0.026456 0.036490 0.023770 0.003040 -0.004303 0.002845
Cl7 0.036343 0.031620 0.023950 -0.008350 0.005628 0.000332
Cl8 0.024151 0.023450 0.033980 0.003500 0.008252 0.006567
Cl9 0.025471 0.038290 0.023890 0.002240 -0.004449 0.001344
Cl10 0.036501 0.030060 0.023740 -0.007310 0.006053 0.001403
C1 0.019489 0.021850 0.018620 -0.001290 0.001765 -0.001175
C2 0.020648 0.020360 0.018760 0.000620 0.003807 -0.000076
C3 0.021323 0.020390 0.018670 0.000460 0.003437 -0.000774
C4 0.018758 0.018970 0.020960 -0.001510 0.004052 -0.001509
C5 0.018889 0.020920 0.018820 -0.001580 0.001702 -0.000203
C6 0.019489 0.021850 0.018620 0.001290 0.001765 0.001175
C7 0.020648 0.020360 0.018760 -0.000620 0.003807 0.000076
C8 0.021323 0.020390 0.018670 -0.000460 0.003437 0.000774
C9 0.018758 0.018970 0.020960 0.001510 0.004052 0.001509
C10 0.018889 0.020920 0.018820 0.001580 0.001702 0.000203
N1 0.021395 0.022240 0.020850 -0.000110 0.002694 -0.004339
N2 0.021395 0.022240 0.020850 0.000110 0.002694 0.004339
#end of data_U.cif_190K

data_U.cif-200K

_audit_creation_method 'generated by Molecular-Toolbox 1.0.1' 
_chemical_formula_sum
'Cl10 C10 N2'

_cell_length_a 5.327145 
_cell_length_b 5.176182 
_cell_length_c 15.187944 
_cell_angle_alpha 90.000000 
_cell_angle_beta 100.269826
_cell_angle_gamma 90.000000

_symmetry_space_group_name_H-M  'P1'

 loop_
_atom_site_type_symbol 
_atom_site_label 
_atom_site_fract_x 
_atom_site_fract_y 
_atom_site_fract_z
Cl Cl1 0.116002 0.667576 0.331728
Cl Cl2 0.534482 0.099460 0.323470
Cl Cl3 0.963176 0.177401 0.492013
Cl Cl4 0.967319 0.826104 0.660638
Cl Cl5 0.530312 0.405912 0.654197
Cl Cl6 0.116002 0.332424 0.831728
Cl Cl7 0.534482 0.900540 0.823470
Cl Cl8 0.963176 0.822599 0.992013
Cl Cl9 0.967319 0.173896 0.160638
Cl Cl10 0.530312 0.594088 0.154197
C C1 0.358343 0.720511 0.421131
C C2 0.541989 0.912700 0.416560
C C3 0.541622 0.605938 0.564185
C C4 0.734587 0.947482 0.492154
C C5 0.736502 0.790822 0.568117
C C6 0.358343 0.279489 0.921131
C C7 0.541989 0.087300 0.916560
C C8 0.541622 0.394062 0.064185
C C9 0.734587 0.052518 0.992154
C C10 0.736502 0.209178 0.068117
N N1 0.360765 0.574099 0.492907
N N2 0.360765 0.425901 0.992907
loop_
_atom_site_aniso_label
_atom_site_aniso_U_11
_atom_site_aniso_U_22
_atom_site_aniso_U_33
_atom_site_aniso_U_23
_atom_site_aniso_U_13
_atom_site_aniso_U_12
# Additional Data for U_Aniso: 200.000000
Cl1 0.027789 0.038360 0.024960 -0.003200 -0.004534 -0.002991
Cl2 0.038197 0.033220 0.025160 0.008790 0.005912 -0.000352
Cl3 0.025371 0.024630 0.035710 -0.003680 0.008679 -0.006904
Cl4 0.026761 0.040250 0.025090 -0.002360 -0.004688 -0.001415
Cl5 0.038356 0.031580 0.024930 0.007690 0.006363 -0.001483
Cl6 0.027789 0.038360 0.024960 0.003200 -0.004534 0.002991
Cl7 0.038197 0.033220 0.025160 -0.008790 0.005912 0.000352
Cl8 0.025371 0.024630 0.035710 0.003680 0.008679 0.006904
Cl9 0.026761 0.040250 0.025090 0.002360 -0.004688 0.001415
Cl10 0.038356 0.031580 0.024930 -0.007690 0.006363 0.001483
C1 0.020422 0.022900 0.019520 -0.001370 0.001857 -0.001218
C2 0.021630 0.021330 0.019660 0.000640 0.004007 -0.000053
C3 0.022352 0.021360 0.019570 0.000470 0.003607 -0.000792
C4 0.019643 0.019860 0.021970 -0.001600 0.004261 -0.001564
C5 0.019780 0.021920 0.019720 -0.001680 0.001784 -0.000191
C6 0.020422 0.022900 0.019520 0.001370 0.001857 0.001218
C7 0.021630 0.021330 0.019660 -0.000640 0.004007 0.000053
C8 0.022352 0.021360 0.019570 -0.000470 0.003607 0.000792
C9 0.019643 0.019860 0.021970 0.001600 0.004261 0.001564
C10 0.019780 0.021920 0.019720 0.001680 0.001784 0.000191
N1 0.022420 0.023300 0.021860 -0.000130 0.002835 -0.004559
N2 0.022420 0.023300 0.021860 0.000130 0.002835 0.004559
#end of data_U.cif_200K

data_U.cif-210K

_audit_creation_method 'generated by Molecular-Toolbox 1.0.1' 
_chemical_formula_sum
'Cl10 C10 N2'

_cell_length_a 5.327145 
_cell_length_b 5.176182 
_cell_length_c 15.187944 
_cell_angle_alpha 90.000000 
_cell_angle_beta 100.269826
_cell_angle_gamma 90.000000

_symmetry_space_group_name_H-M  'P1'

 loop_
_atom_site_type_symbol 
_atom_site_label 
_atom_site_fract_x 
_atom_site_fract_y 
_atom_site_fract_z
Cl Cl1 0.116002 0.667576 0.331728
Cl Cl2 0.534482 0.099460 0.323470
Cl Cl3 0.963176 0.177401 0.492013
Cl Cl4 0.967319 0.826104 0.660638
Cl Cl5 0.530312 0.405912 0.654197
Cl Cl6 0.116002 0.332424 0.831728
Cl Cl7 0.534482 0.900540 0.823470
Cl Cl8 0.963176 0.822599 0.992013
Cl Cl9 0.967319 0.173896 0.160638
Cl Cl10 0.530312 0.594088 0.154197
C C1 0.358343 0.720511 0.421131
C C2 0.541989 0.912700 0.416560
C C3 0.541622 0.605938 0.564185
C C4 0.734587 0.947482 0.492154
C C5 0.736502 0.790822 0.568117
C C6 0.358343 0.279489 0.921131
C C7 0.541989 0.087300 0.916560
C C8 0.541622 0.394062 0.064185
C C9 0.734587 0.052518 0.992154
C C10 0.736502 0.209178 0.068117
N N1 0.360765 0.574099 0.492907
N N2 0.360765 0.425901 0.992907
loop_
_atom_site_aniso_label
_atom_site_aniso_U_11
_atom_site_aniso_U_22
_atom_site_aniso_U_33
_atom_site_aniso_U_23
_atom_site_aniso_U_13
_atom_site_aniso_U_12
# Additional Data for U_Aniso: 210.000000
Cl1 0.029131 0.040220 0.026160 -0.003360 -0.004763 -0.003138
Cl2 0.040052 0.034830 0.026370 0.009220 0.006197 -0.000363
Cl3 0.026582 0.025810 0.037440 -0.003870 0.009105 -0.007243
Cl4 0.028052 0.042210 0.026300 -0.002470 -0.004925 -0.001483
Cl5 0.040230 0.033110 0.026130 0.008070 0.006676 -0.001553
Cl6 0.029131 0.040220 0.026160 0.003360 -0.004763 0.003138
Cl7 0.040052 0.034830 0.026370 -0.009220 0.006197 0.000363
Cl8 0.026582 0.025810 0.037440 0.003870 0.009105 0.007243
Cl9 0.028052 0.042210 0.026300 0.002470 -0.004925 0.001483
Cl10 0.040230 0.033110 0.026130 -0.008070 0.006676 0.001553
C1 0.021346 0.023950 0.020410 -0.001450 0.001946 -0.001272
C2 0.022622 0.022290 0.020560 0.000660 0.004207 -0.000040
C3 0.023375 0.022330 0.020470 0.000480 0.003787 -0.000820
C4 0.020535 0.020760 0.022990 -0.001690 0.004463 -0.001620
C5 0.020685 0.022910 0.020630 -0.001780 0.001877 -0.000180
C6 0.021346 0.023950 0.020410 0.001450 0.001946 0.001272
C7 0.022622 0.022290 0.020560 -0.000660 0.004207 0.000040
C8 0.023375 0.022330 0.020470 -0.000480 0.003787 0.000820
C9 0.020535 0.020760 0.022990 0.001690 0.004463 0.001620
C10 0.020685 0.022910 0.020630 0.001780 0.001877 0.000180
N1 0.023455 0.024370 0.022880 -0.000150 0.002977 -0.004770
N2 0.023455 0.024370 0.022880 0.000150 0.002977 0.004770
#end of data_U.cif_210K

data_U.cif-220K

_audit_creation_method 'generated by Molecular-Toolbox 1.0.1' 
_chemical_formula_sum
'Cl10 C10 N2'

_cell_length_a 5.327145 
_cell_length_b 5.176182 
_cell_length_c 15.187944 
_cell_angle_alpha 90.000000 
_cell_angle_beta 100.269826
_cell_angle_gamma 90.000000

_symmetry_space_group_name_H-M  'P1'

 loop_
_atom_site_type_symbol 
_atom_site_label 
_atom_site_fract_x 
_atom_site_fract_y 
_atom_site_fract_z
Cl Cl1 0.116002 0.667576 0.331728
Cl Cl2 0.534482 0.099460 0.323470
Cl Cl3 0.963176 0.177401 0.492013
Cl Cl4 0.967319 0.826104 0.660638
Cl Cl5 0.530312 0.405912 0.654197
Cl Cl6 0.116002 0.332424 0.831728
Cl Cl7 0.534482 0.900540 0.823470
Cl Cl8 0.963176 0.822599 0.992013
Cl Cl9 0.967319 0.173896 0.160638
Cl Cl10 0.530312 0.594088 0.154197
C C1 0.358343 0.720511 0.421131
C C2 0.541989 0.912700 0.416560
C C3 0.541622 0.605938 0.564185
C C4 0.734587 0.947482 0.492154
C C5 0.736502 0.790822 0.568117
C C6 0.358343 0.279489 0.921131
C C7 0.541989 0.087300 0.916560
C C8 0.541622 0.394062 0.064185
C C9 0.734587 0.052518 0.992154
C C10 0.736502 0.209178 0.068117
N N1 0.360765 0.574099 0.492907
N N2 0.360765 0.425901 0.992907
loop_
_atom_site_aniso_label
_atom_site_aniso_U_11
_atom_site_aniso_U_22
_atom_site_aniso_U_33
_atom_site_aniso_U_23
_atom_site_aniso_U_13
_atom_site_aniso_U_12
# Additional Data for U_Aniso: 220.000000
Cl1 0.030473 0.042090 0.027370 -0.003520 -0.004990 -0.003294
Cl2 0.041919 0.036450 0.027580 0.009660 0.006491 -0.000383
Cl3 0.027811 0.026990 0.039170 -0.004050 0.009532 -0.007590
Cl4 0.029343 0.044170 0.027510 -0.002590 -0.005162 -0.001554
Cl5 0.042094 0.034640 0.027330 0.008450 0.006988 -0.001623
Cl6 0.030473 0.042090 0.027370 0.003520 -0.004990 0.003294
Cl7 0.041919 0.036450 0.027580 -0.009660 0.006491 0.000383
Cl8 0.027811 0.026990 0.039170 0.004050 0.009532 0.007590
Cl9 0.029343 0.044170 0.027510 0.002590 -0.005162 0.001554
Cl10 0.042094 0.034640 0.027330 -0.008450 0.006988 0.001623
C1 0.022276 0.025000 0.021310 -0.001530 0.002028 -0.001316
C2 0.023613 0.023260 0.021460 0.000680 0.004407 -0.000026
C3 0.024408 0.023300 0.021360 0.000490 0.003966 -0.000847
C4 0.021430 0.021660 0.024010 -0.001780 0.004674 -0.001685
C5 0.021586 0.023910 0.021530 -0.001870 0.001959 -0.000176
C6 0.022276 0.025000 0.021310 0.001530 0.002028 0.001316
C7 0.023613 0.023260 0.021460 -0.000680 0.004407 0.000026
C8 0.024408 0.023300 0.021360 -0.000490 0.003966 0.000847
C9 0.021430 0.021660 0.024010 0.001780 0.004674 0.001685
C10 0.021586 0.023910 0.021530 0.001870 0.001959 0.000176
N1 0.024481 0.025440 0.023910 -0.000160 0.003121 -0.004988
N2 0.024481 0.025440 0.023910 0.000160 0.003121 0.004988
#end of data_U.cif_220K

data_U.cif-230K

_audit_creation_method 'generated by Molecular-Toolbox 1.0.1' 
_chemical_formula_sum
'Cl10 C10 N2'

_cell_length_a 5.327145 
_cell_length_b 5.176182 
_cell_length_c 15.187944 
_cell_angle_alpha 90.000000 
_cell_angle_beta 100.269826
_cell_angle_gamma 90.000000

_symmetry_space_group_name_H-M  'P1'

 loop_
_atom_site_type_symbol 
_atom_site_label 
_atom_site_fract_x 
_atom_site_fract_y 
_atom_site_fract_z
Cl Cl1 0.116002 0.667576 0.331728
Cl Cl2 0.534482 0.099460 0.323470
Cl Cl3 0.963176 0.177401 0.492013
Cl Cl4 0.967319 0.826104 0.660638
Cl Cl5 0.530312 0.405912 0.654197
Cl Cl6 0.116002 0.332424 0.831728
Cl Cl7 0.534482 0.900540 0.823470
Cl Cl8 0.963176 0.822599 0.992013
Cl Cl9 0.967319 0.173896 0.160638
Cl Cl10 0.530312 0.594088 0.154197
C C1 0.358343 0.720511 0.421131
C C2 0.541989 0.912700 0.416560
C C3 0.541622 0.605938 0.564185
C C4 0.734587 0.947482 0.492154
C C5 0.736502 0.790822 0.568117
C C6 0.358343 0.279489 0.921131
C C7 0.541989 0.087300 0.916560
C C8 0.541622 0.394062 0.064185
C C9 0.734587 0.052518 0.992154
C C10 0.736502 0.209178 0.068117
N N1 0.360765 0.574099 0.492907
N N2 0.360765 0.425901 0.992907
loop_
_atom_site_aniso_label
_atom_site_aniso_U_11
_atom_site_aniso_U_22
_atom_site_aniso_U_33
_atom_site_aniso_U_23
_atom_site_aniso_U_13
_atom_site_aniso_U_12
# Additional Data for U_Aniso: 230.000000
Cl1 0.031812 0.043960 0.028570 -0.003680 -0.005228 -0.003441
Cl2 0.043774 0.038060 0.028800 0.010090 0.006778 -0.000405
Cl3 0.029029 0.028180 0.040910 -0.004230 0.009950 -0.007927
Cl4 0.030633 0.046130 0.028720 -0.002710 -0.005398 -0.001615
Cl5 0.043955 0.036170 0.028530 0.008830 0.007290 -0.001702
Cl6 0.031812 0.043960 0.028570 0.003680 -0.005228 0.003441
Cl7 0.043774 0.038060 0.028800 -0.010090 0.006778 0.000405
Cl8 0.029029 0.028180 0.040910 0.004230 0.009950 0.007927
Cl9 0.030633 0.046130 0.028720 0.002710 -0.005398 0.001615
Cl10 0.043955 0.036170 0.028530 -0.008830 0.007290 0.001702
C1 0.023209 0.026050 0.022200 -0.001600 0.002118 -0.001358
C2 0.024611 0.024240 0.022360 0.000700 0.004596 -0.000013
C3 0.025437 0.024280 0.022260 0.000510 0.004136 -0.000864
C4 0.022325 0.022560 0.025030 -0.001870 0.004886 -0.001750
C5 0.022478 0.024920 0.022440 -0.001970 0.002043 -0.000164
C6 0.023209 0.026050 0.022200 0.001600 0.002118 0.001358
C7 0.024611 0.024240 0.022360 -0.000700 0.004596 0.000013
C8 0.025437 0.024280 0.022260 -0.000510 0.004136 0.000864
C9 0.022325 0.022560 0.025030 0.001870 0.004886 0.001750
C10 0.022478 0.024920 0.022440 0.001970 0.002043 0.000164
N1 0.025516 0.026510 0.024930 -0.000180 0.003264 -0.005208
N2 0.025516 0.026510 0.024930 0.000180 0.003264 0.005208
#end of data_U.cif_230K

data_U.cif-240K

_audit_creation_method 'generated by Molecular-Toolbox 1.0.1' 
_chemical_formula_sum
'Cl10 C10 N2'

_cell_length_a 5.327145 
_cell_length_b 5.176182 
_cell_length_c 15.187944 
_cell_angle_alpha 90.000000 
_cell_angle_beta 100.269826
_cell_angle_gamma 90.000000

_symmetry_space_group_name_H-M  'P1'

 loop_
_atom_site_type_symbol 
_atom_site_label 
_atom_site_fract_x 
_atom_site_fract_y 
_atom_site_fract_z
Cl Cl1 0.116002 0.667576 0.331728
Cl Cl2 0.534482 0.099460 0.323470
Cl Cl3 0.963176 0.177401 0.492013
Cl Cl4 0.967319 0.826104 0.660638
Cl Cl5 0.530312 0.405912 0.654197
Cl Cl6 0.116002 0.332424 0.831728
Cl Cl7 0.534482 0.900540 0.823470
Cl Cl8 0.963176 0.822599 0.992013
Cl Cl9 0.967319 0.173896 0.160638
Cl Cl10 0.530312 0.594088 0.154197
C C1 0.358343 0.720511 0.421131
C C2 0.541989 0.912700 0.416560
C C3 0.541622 0.605938 0.564185
C C4 0.734587 0.947482 0.492154
C C5 0.736502 0.790822 0.568117
C C6 0.358343 0.279489 0.921131
C C7 0.541989 0.087300 0.916560
C C8 0.541622 0.394062 0.064185
C C9 0.734587 0.052518 0.992154
C C10 0.736502 0.209178 0.068117
N N1 0.360765 0.574099 0.492907
N N2 0.360765 0.425901 0.992907
loop_
_atom_site_aniso_label
_atom_site_aniso_U_11
_atom_site_aniso_U_22
_atom_site_aniso_U_33
_atom_site_aniso_U_23
_atom_site_aniso_U_13
_atom_site_aniso_U_12
# Additional Data for U_Aniso: 240.000000
Cl1 0.033164 0.045830 0.029770 -0.003840 -0.005457 -0.003587
Cl2 0.045637 0.039670 0.030010 0.010530 0.007062 -0.000415
Cl3 0.030249 0.029360 0.042650 -0.004420 0.010379 -0.008276
Cl4 0.031924 0.048100 0.029930 -0.002830 -0.005635 -0.001685
Cl5 0.045830 0.037710 0.029740 0.009220 0.007605 -0.001771
Cl6 0.033164 0.045830 0.029770 0.003840 -0.005457 0.003587
Cl7 0.045637 0.039670 0.030010 -0.010530 0.007062 0.000415
Cl8 0.030249 0.029360 0.042650 0.004420 0.010379 0.008276
Cl9 0.031924 0.048100 0.029930 0.002830 -0.005635 0.001685
Cl10 0.045830 0.037710 0.029740 -0.009220 0.007605 0.001771
C1 0.024152 0.027100 0.023100 -0.001680 0.002209 -0.001402
C2 0.025603 0.025210 0.023270 0.000720 0.004798 0.000000
C3 0.026470 0.025260 0.023160 0.000520 0.004316 -0.000891
C4 0.023220 0.023460 0.026050 -0.001960 0.005097 -0.001816
C5 0.023379 0.025920 0.023350 -0.002060 0.002126 -0.000161
C6 0.024152 0.027100 0.023100 0.001680 0.002209 0.001402
C7 0.025603 0.025210 0.023270 -0.000720 0.004798 -0.000000
C8 0.026470 0.025260 0.023160 -0.000520 0.004316 0.000891
C9 0.023220 0.023460 0.026050 0.001960 0.005097 0.001816
C10 0.023379 0.025920 0.023350 0.002060 0.002126 0.000161
N1 0.026547 0.027580 0.025950 -0.000200 0.003396 -0.005428
N2 0.026547 0.027580 0.025950 0.000200 0.003396 0.005428
#end of data_U.cif_240K

data_U.cif-250K

_audit_creation_method 'generated by Molecular-Toolbox 1.0.1' 
_chemical_formula_sum
'Cl10 C10 N2'

_cell_length_a 5.327145 
_cell_length_b 5.176182 
_cell_length_c 15.187944 
_cell_angle_alpha 90.000000 
_cell_angle_beta 100.269826
_cell_angle_gamma 90.000000

_symmetry_space_group_name_H-M  'P1'

 loop_
_atom_site_type_symbol 
_atom_site_label 
_atom_site_fract_x 
_atom_site_fract_y 
_atom_site_fract_z
Cl Cl1 0.116002 0.667576 0.331728
Cl Cl2 0.534482 0.099460 0.323470
Cl Cl3 0.963176 0.177401 0.492013
Cl Cl4 0.967319 0.826104 0.660638
Cl Cl5 0.530312 0.405912 0.654197
Cl Cl6 0.116002 0.332424 0.831728
Cl Cl7 0.534482 0.900540 0.823470
Cl Cl8 0.963176 0.822599 0.992013
Cl Cl9 0.967319 0.173896 0.160638
Cl Cl10 0.530312 0.594088 0.154197
C C1 0.358343 0.720511 0.421131
C C2 0.541989 0.912700 0.416560
C C3 0.541622 0.605938 0.564185
C C4 0.734587 0.947482 0.492154
C C5 0.736502 0.790822 0.568117
C C6 0.358343 0.279489 0.921131
C C7 0.541989 0.087300 0.916560
C C8 0.541622 0.394062 0.064185
C C9 0.734587 0.052518 0.992154
C C10 0.736502 0.209178 0.068117
N N1 0.360765 0.574099 0.492907
N N2 0.360765 0.425901 0.992907
loop_
_atom_site_aniso_label
_atom_site_aniso_U_11
_atom_site_aniso_U_22
_atom_site_aniso_U_33
_atom_site_aniso_U_23
_atom_site_aniso_U_13
_atom_site_aniso_U_12
# Additional Data for U_Aniso: 250.000000
Cl1 0.034507 0.047700 0.030980 -0.004000 -0.005684 -0.003734
Cl2 0.047502 0.041290 0.031230 0.010970 0.007349 -0.000435
Cl3 0.031479 0.030550 0.044390 -0.004600 0.010807 -0.008613
Cl4 0.033221 0.050060 0.031140 -0.002940 -0.005882 -0.001754
Cl5 0.047704 0.039240 0.030940 0.009600 0.007917 -0.001841
Cl6 0.034507 0.047700 0.030980 0.004000 -0.005684 0.003734
Cl7 0.047502 0.041290 0.031230 -0.010970 0.007349 0.000435
Cl8 0.031479 0.030550 0.044390 0.004600 0.010807 0.008613
Cl9 0.033221 0.050060 0.031140 0.002940 -0.005882 0.001754
Cl10 0.047704 0.039240 0.030940 -0.009600 0.007917 0.001841
C1 0.025082 0.028160 0.024000 -0.001760 0.002291 -0.001455
C2 0.026604 0.026190 0.024170 0.000740 0.004998 0.000014
C3 0.027500 0.026240 0.024070 0.000540 0.004488 -0.000917
C4 0.024111 0.024360 0.027070 -0.002050 0.005298 -0.001871
C5 0.024293 0.026930 0.024260 -0.002160 0.002219 -0.000149
C6 0.025082 0.028160 0.024000 0.001760 0.002291 0.001455
C7 0.026604 0.026190 0.024170 -0.000740 0.004998 -0.000014
C8 0.027500 0.026240 0.024070 -0.000540 0.004488 0.000917
C9 0.024111 0.024360 0.027070 0.002050 0.005298 0.001871
C10 0.024293 0.026930 0.024260 0.002160 0.002219 0.000149
N1 0.027592 0.028660 0.026980 -0.000210 0.003541 -0.005646
N2 0.027592 0.028660 0.026980 0.000210 0.003541 0.005646
#end of data_U.cif_250K

data_U.cif-260K

_audit_creation_method 'generated by Molecular-Toolbox 1.0.1' 
_chemical_formula_sum
'Cl10 C10 N2'

_cell_length_a 5.327145 
_cell_length_b 5.176182 
_cell_length_c 15.187944 
_cell_angle_alpha 90.000000 
_cell_angle_beta 100.269826
_cell_angle_gamma 90.000000

_symmetry_space_group_name_H-M  'P1'

 loop_
_atom_site_type_symbol 
_atom_site_label 
_atom_site_fract_x 
_atom_site_fract_y 
_atom_site_fract_z
Cl Cl1 0.116002 0.667576 0.331728
Cl Cl2 0.534482 0.099460 0.323470
Cl Cl3 0.963176 0.177401 0.492013
Cl Cl4 0.967319 0.826104 0.660638
Cl Cl5 0.530312 0.405912 0.654197
Cl Cl6 0.116002 0.332424 0.831728
Cl Cl7 0.534482 0.900540 0.823470
Cl Cl8 0.963176 0.822599 0.992013
Cl Cl9 0.967319 0.173896 0.160638
Cl Cl10 0.530312 0.594088 0.154197
C C1 0.358343 0.720511 0.421131
C C2 0.541989 0.912700 0.416560
C C3 0.541622 0.605938 0.564185
C C4 0.734587 0.947482 0.492154
C C5 0.736502 0.790822 0.568117
C C6 0.358343 0.279489 0.921131
C C7 0.541989 0.087300 0.916560
C C8 0.541622 0.394062 0.064185
C C9 0.734587 0.052518 0.992154
C C10 0.736502 0.209178 0.068117
N N1 0.360765 0.574099 0.492907
N N2 0.360765 0.425901 0.992907
loop_
_atom_site_aniso_label
_atom_site_aniso_U_11
_atom_site_aniso_U_22
_atom_site_aniso_U_33
_atom_site_aniso_U_23
_atom_site_aniso_U_13
_atom_site_aniso_U_12
# Additional Data for U_Aniso: 260.000000
Cl1 0.035855 0.049570 0.032180 -0.004160 -0.005923 -0.003881
Cl2 0.049369 0.042910 0.032440 0.011400 0.007643 -0.000457
Cl3 0.032709 0.031740 0.046130 -0.004790 0.011235 -0.008962
Cl4 0.034511 0.052030 0.032350 -0.003060 -0.006119 -0.001825
Cl5 0.049575 0.040780 0.032150 0.009980 0.008221 -0.001920
Cl6 0.035855 0.049570 0.032180 0.004160 -0.005923 0.003881
Cl7 0.049369 0.042910 0.032440 -0.011400 0.007643 0.000457
Cl8 0.032709 0.031740 0.046130 0.004790 0.011235 0.008962
Cl9 0.034511 0.052030 0.032350 0.003060 -0.006119 0.001825
Cl10 0.049575 0.040780 0.032150 -0.009980 0.008221 0.001920
C1 0.026026 0.029220 0.024900 -0.001840 0.002383 -0.001499
C2 0.027602 0.027160 0.025080 0.000760 0.005190 0.000027
C3 0.028533 0.027220 0.024970 0.000550 0.004668 -0.000945
C4 0.025016 0.025270 0.028100 -0.002140 0.005512 -0.001936
C5 0.025195 0.027930 0.025170 -0.002250 0.002303 -0.000145
C6 0.026026 0.029220 0.024900 0.001840 0.002383 0.001499
C7 0.027602 0.027160 0.025080 -0.000760 0.005190 -0.000027
C8 0.028533 0.027220 0.024970 -0.000550 0.004668 0.000945
C9 0.025016 0.025270 0.028100 0.002140 0.005512 0.001936
C10 0.025195 0.027930 0.025170 0.002250 0.002303 0.000145
N1 0.028627 0.029730 0.028000 -0.000230 0.003683 -0.005866
N2 0.028627 0.029730 0.028000 0.000230 0.003683 0.005866
#end of data_U.cif_260K

data_U.cif-270K

_audit_creation_method 'generated by Molecular-Toolbox 1.0.1' 
_chemical_formula_sum
'Cl10 C10 N2'

_cell_length_a 5.327145 
_cell_length_b 5.176182 
_cell_length_c 15.187944 
_cell_angle_alpha 90.000000 
_cell_angle_beta 100.269826
_cell_angle_gamma 90.000000

_symmetry_space_group_name_H-M  'P1'

 loop_
_atom_site_type_symbol 
_atom_site_label 
_atom_site_fract_x 
_atom_site_fract_y 
_atom_site_fract_z
Cl Cl1 0.116002 0.667576 0.331728
Cl Cl2 0.534482 0.099460 0.323470
Cl Cl3 0.963176 0.177401 0.492013
Cl Cl4 0.967319 0.826104 0.660638
Cl Cl5 0.530312 0.405912 0.654197
Cl Cl6 0.116002 0.332424 0.831728
Cl Cl7 0.534482 0.900540 0.823470
Cl Cl8 0.963176 0.822599 0.992013
Cl Cl9 0.967319 0.173896 0.160638
Cl Cl10 0.530312 0.594088 0.154197
C C1 0.358343 0.720511 0.421131
C C2 0.541989 0.912700 0.416560
C C3 0.541622 0.605938 0.564185
C C4 0.734587 0.947482 0.492154
C C5 0.736502 0.790822 0.568117
C C6 0.358343 0.279489 0.921131
C C7 0.541989 0.087300 0.916560
C C8 0.541622 0.394062 0.064185
C C9 0.734587 0.052518 0.992154
C C10 0.736502 0.209178 0.068117
N N1 0.360765 0.574099 0.492907
N N2 0.360765 0.425901 0.992907
loop_
_atom_site_aniso_label
_atom_site_aniso_U_11
_atom_site_aniso_U_22
_atom_site_aniso_U_33
_atom_site_aniso_U_23
_atom_site_aniso_U_13
_atom_site_aniso_U_12
# Additional Data for U_Aniso: 270.000000
Cl1 0.037207 0.051440 0.033390 -0.004320 -0.006150 -0.004037
Cl2 0.051233 0.044530 0.033660 0.011840 0.007930 -0.000467
Cl3 0.033930 0.032930 0.047870 -0.004970 0.011664 -0.009299
Cl4 0.035812 0.054000 0.033570 -0.003180 -0.006354 -0.001895
Cl5 0.051449 0.042310 0.033350 0.010360 0.008534 -0.001990
Cl6 0.037207 0.051440 0.033390 0.004320 -0.006150 0.004037
Cl7 0.051233 0.044530 0.033660 -0.011840 0.007930 0.000467
Cl8 0.033930 0.032930 0.047870 0.004970 0.011664 0.009299
Cl9 0.035812 0.054000 0.033570 0.003180 -0.006354 0.001895
Cl10 0.051449 0.042310 0.033350 -0.010360 0.008534 0.001990
C1 0.026956 0.030280 0.025800 -0.001910 0.002464 -0.001551
C2 0.028603 0.028140 0.025990 0.000780 0.005391 0.000041
C3 0.029572 0.028200 0.025870 0.000570 0.004839 -0.000971
C4 0.025911 0.026170 0.029120 -0.002230 0.005723 -0.002001
C5 0.026096 0.028940 0.026080 -0.002340 0.002386 -0.000142
C6 0.026956 0.030280 0.025800 0.001910 0.002464 0.001551
C7 0.028603 0.028140 0.025990 -0.000780 0.005391 -0.000041
C8 0.029572 0.028200 0.025870 -0.000570 0.004839 0.000971
C9 0.025911 0.026170 0.029120 0.002230 0.005723 0.002001
C10 0.026096 0.028940 0.026080 0.002340 0.002386 0.000142
N1 0.029669 0.030810 0.029030 -0.000250 0.003818 -0.006086
N2 0.029669 0.030810 0.029030 0.000250 0.003818 0.006086
#end of data_U.cif_270K

data_U.cif-280K

_audit_creation_method 'generated by Molecular-Toolbox 1.0.1' 
_chemical_formula_sum
'Cl10 C10 N2'

_cell_length_a 5.327145 
_cell_length_b 5.176182 
_cell_length_c 15.187944 
_cell_angle_alpha 90.000000 
_cell_angle_beta 100.269826
_cell_angle_gamma 90.000000

_symmetry_space_group_name_H-M  'P1'

 loop_
_atom_site_type_symbol 
_atom_site_label 
_atom_site_fract_x 
_atom_site_fract_y 
_atom_site_fract_z
Cl Cl1 0.116002 0.667576 0.331728
Cl Cl2 0.534482 0.099460 0.323470
Cl Cl3 0.963176 0.177401 0.492013
Cl Cl4 0.967319 0.826104 0.660638
Cl Cl5 0.530312 0.405912 0.654197
Cl Cl6 0.116002 0.332424 0.831728
Cl Cl7 0.534482 0.900540 0.823470
Cl Cl8 0.963176 0.822599 0.992013
Cl Cl9 0.967319 0.173896 0.160638
Cl Cl10 0.530312 0.594088 0.154197
C C1 0.358343 0.720511 0.421131
C C2 0.541989 0.912700 0.416560
C C3 0.541622 0.605938 0.564185
C C4 0.734587 0.947482 0.492154
C C5 0.736502 0.790822 0.568117
C C6 0.358343 0.279489 0.921131
C C7 0.541989 0.087300 0.916560
C C8 0.541622 0.394062 0.064185
C C9 0.734587 0.052518 0.992154
C C10 0.736502 0.209178 0.068117
N N1 0.360765 0.574099 0.492907
N N2 0.360765 0.425901 0.992907
loop_
_atom_site_aniso_label
_atom_site_aniso_U_11
_atom_site_aniso_U_22
_atom_site_aniso_U_33
_atom_site_aniso_U_23
_atom_site_aniso_U_13
_atom_site_aniso_U_12
# Additional Data for U_Aniso: 280.000000
Cl1 0.038556 0.053320 0.034600 -0.004480 -0.006387 -0.004184
Cl2 0.053098 0.046150 0.034880 0.012280 0.008216 -0.000487
Cl3 0.035157 0.034120 0.049610 -0.005160 0.012082 -0.009638
Cl4 0.037109 0.055970 0.034780 -0.003300 -0.006601 -0.001966
Cl5 0.053323 0.043850 0.034560 0.010750 0.008848 -0.002069
Cl6 0.038556 0.053320 0.034600 0.004480 -0.006387 0.004184
Cl7 0.053098 0.046150 0.034880 -0.012280 0.008216 0.000487
Cl8 0.035157 0.034120 0.049610 0.005160 0.012082 0.009638
Cl9 0.037109 0.055970 0.034780 0.003300 -0.006601 0.001966
Cl10 0.053323 0.043850 0.034560 -0.010750 0.008848 0.002069
C1 0.027899 0.031340 0.026700 -0.001990 0.002556 -0.001595
C2 0.029601 0.029120 0.026890 0.000810 0.005581 0.000056
C3 0.030605 0.029180 0.026780 0.000580 0.005020 -0.000999
C4 0.026813 0.027080 0.030150 -0.002320 0.005926 -0.002067
C5 0.027007 0.029950 0.026990 -0.002440 0.002470 -0.000140
C6 0.027899 0.031340 0.026700 0.001990 0.002556 0.001595
C7 0.029601 0.029120 0.026890 -0.000810 0.005581 -0.000056
C8 0.030605 0.029180 0.026780 -0.000580 0.005020 0.000999
C9 0.026813 0.027080 0.030150 0.002320 0.005926 0.002067
C10 0.027007 0.029950 0.026990 0.002440 0.002470 0.000140
N1 0.030704 0.031890 0.030060 -0.000260 0.003962 -0.006304
N2 0.030704 0.031890 0.030060 0.000260 0.003962 0.006304
#end of data_U.cif_280K

data_U.cif-290K

_audit_creation_method 'generated by Molecular-Toolbox 1.0.1' 
_chemical_formula_sum
'Cl10 C10 N2'

_cell_length_a 5.327145 
_cell_length_b 5.176182 
_cell_length_c 15.187944 
_cell_angle_alpha 90.000000 
_cell_angle_beta 100.269826
_cell_angle_gamma 90.000000

_symmetry_space_group_name_H-M  'P1'

 loop_
_atom_site_type_symbol 
_atom_site_label 
_atom_site_fract_x 
_atom_site_fract_y 
_atom_site_fract_z
Cl Cl1 0.116002 0.667576 0.331728
Cl Cl2 0.534482 0.099460 0.323470
Cl Cl3 0.963176 0.177401 0.492013
Cl Cl4 0.967319 0.826104 0.660638
Cl Cl5 0.530312 0.405912 0.654197
Cl Cl6 0.116002 0.332424 0.831728
Cl Cl7 0.534482 0.900540 0.823470
Cl Cl8 0.963176 0.822599 0.992013
Cl Cl9 0.967319 0.173896 0.160638
Cl Cl10 0.530312 0.594088 0.154197
C C1 0.358343 0.720511 0.421131
C C2 0.541989 0.912700 0.416560
C C3 0.541622 0.605938 0.564185
C C4 0.734587 0.947482 0.492154
C C5 0.736502 0.790822 0.568117
C C6 0.358343 0.279489 0.921131
C C7 0.541989 0.087300 0.916560
C C8 0.541622 0.394062 0.064185
C C9 0.734587 0.052518 0.992154
C C10 0.736502 0.209178 0.068117
N N1 0.360765 0.574099 0.492907
N N2 0.360765 0.425901 0.992907
loop_
_atom_site_aniso_label
_atom_site_aniso_U_11
_atom_site_aniso_U_22
_atom_site_aniso_U_33
_atom_site_aniso_U_23
_atom_site_aniso_U_13
_atom_site_aniso_U_12
# Additional Data for U_Aniso: 290.000000
Cl1 0.039908 0.055200 0.035810 -0.004640 -0.006614 -0.004330
Cl2 0.054971 0.047770 0.036100 0.012710 0.008502 -0.000509
Cl3 0.036387 0.035320 0.051360 -0.005340 0.012512 -0.009985
Cl4 0.038410 0.057940 0.036000 -0.003410 -0.006836 -0.002035
Cl5 0.055207 0.045390 0.035770 0.011130 0.009162 -0.002139
Cl6 0.039908 0.055200 0.035810 0.004640 -0.006614 0.004330
Cl7 0.054971 0.047770 0.036100 -0.012710 0.008502 0.000509
Cl8 0.036387 0.035320 0.051360 0.005340 0.012512 0.009985
Cl9 0.038410 0.057940 0.036000 0.003410 -0.006836 0.002035
Cl10 0.055207 0.045390 0.035770 -0.011130 0.009162 0.002139
C1 0.028839 0.032400 0.027600 -0.002070 0.002638 -0.001648
C2 0.030602 0.030100 0.027800 0.000830 0.005783 0.000059
C3 0.031644 0.030160 0.027680 0.000600 0.005191 -0.001025
C4 0.027717 0.027990 0.031170 -0.002410 0.006138 -0.002132
C5 0.027918 0.030960 0.027900 -0.002530 0.002554 -0.000136
C6 0.028839 0.032400 0.027600 0.002070 0.002638 0.001648
C7 0.030602 0.030100 0.027800 -0.000830 0.005783 -0.000059
C8 0.031644 0.030160 0.027680 -0.000600 0.005191 0.001025
C9 0.027717 0.027990 0.031170 0.002410 0.006138 0.002132
C10 0.027918 0.030960 0.027900 0.002530 0.002554 0.000136
N1 0.031746 0.032980 0.031090 -0.000280 0.004096 -0.006524
N2 0.031746 0.032980 0.031090 0.000280 0.004096 0.006524
#end of data_U.cif_290K

data_U.cif-300K

_audit_creation_method 'generated by Molecular-Toolbox 1.0.1' 
_chemical_formula_sum
'Cl10 C10 N2'

_cell_length_a 5.327145 
_cell_length_b 5.176182 
_cell_length_c 15.187944 
_cell_angle_alpha 90.000000 
_cell_angle_beta 100.269826
_cell_angle_gamma 90.000000

_symmetry_space_group_name_H-M  'P1'

 loop_
_atom_site_type_symbol 
_atom_site_label 
_atom_site_fract_x 
_atom_site_fract_y 
_atom_site_fract_z
Cl Cl1 0.116002 0.667576 0.331728
Cl Cl2 0.534482 0.099460 0.323470
Cl Cl3 0.963176 0.177401 0.492013
Cl Cl4 0.967319 0.826104 0.660638
Cl Cl5 0.530312 0.405912 0.654197
Cl Cl6 0.116002 0.332424 0.831728
Cl Cl7 0.534482 0.900540 0.823470
Cl Cl8 0.963176 0.822599 0.992013
Cl Cl9 0.967319 0.173896 0.160638
Cl Cl10 0.530312 0.594088 0.154197
C C1 0.358343 0.720511 0.421131
C C2 0.541989 0.912700 0.416560
C C3 0.541622 0.605938 0.564185
C C4 0.734587 0.947482 0.492154
C C5 0.736502 0.790822 0.568117
C C6 0.358343 0.279489 0.921131
C C7 0.541989 0.087300 0.916560
C C8 0.541622 0.394062 0.064185
C C9 0.734587 0.052518 0.992154
C C10 0.736502 0.209178 0.068117
N N1 0.360765 0.574099 0.492907
N N2 0.360765 0.425901 0.992907
loop_
_atom_site_aniso_label
_atom_site_aniso_U_11
_atom_site_aniso_U_22
_atom_site_aniso_U_33
_atom_site_aniso_U_23
_atom_site_aniso_U_13
_atom_site_aniso_U_12
# Additional Data for U_Aniso: 300.000000
Cl1 0.041261 0.057070 0.037020 -0.004800 -0.006841 -0.004477
Cl2 0.056839 0.049390 0.037320 0.013150 0.008799 -0.000519
Cl3 0.037618 0.036510 0.053100 -0.005530 0.012940 -0.010334
Cl4 0.039710 0.059910 0.037210 -0.003530 -0.007073 -0.002105
Cl5 0.057078 0.046930 0.036980 0.011510 0.009466 -0.002209
Cl6 0.041261 0.057070 0.037020 0.004800 -0.006841 0.004477
Cl7 0.056839 0.049390 0.037320 -0.013150 0.008799 0.000519
Cl8 0.037618 0.036510 0.053100 0.005530 0.012940 0.010334
Cl9 0.039710 0.059910 0.037210 0.003530 -0.007073 0.002105
Cl10 0.057078 0.046930 0.036980 -0.011510 0.009466 0.002209
C1 0.029782 0.033460 0.028510 -0.002140 0.002731 -0.001700
C2 0.031600 0.031080 0.028710 0.000850 0.005975 0.000073
C3 0.032687 0.031150 0.028590 0.000610 0.005373 -0.001052
C4 0.028619 0.028900 0.032200 -0.002500 0.006341 -0.002197
C5 0.028829 0.031970 0.028810 -0.002620 0.002637 -0.000133
C6 0.029782 0.033460 0.028510 0.002140 0.002731 0.001700
C7 0.031600 0.031080 0.028710 -0.000850 0.005975 -0.000073
C8 0.032687 0.031150 0.028590 -0.000610 0.005373 0.001052
C9 0.028619 0.028900 0.032200 0.002500 0.006341 0.002197
C10 0.028829 0.031970 0.028810 0.002620 0.002637 0.000133
N1 0.032790 0.034060 0.032110 -0.000290 0.004239 -0.006743
N2 0.032790 0.034060 0.032110 0.000290 0.004239 0.006743
#end of data_U.cif_300K

