data_B.cif_0K

_audit_creation_method 'generated by Molecular-Toolbox 1.0.1' 
_chemical_formula_sum
'Cl10 C10 N2'

_cell_length_a 5.350524 
_cell_length_b 5.192441 
_cell_length_c 15.058446 
_cell_angle_alpha 89.999991 
_cell_angle_beta 99.578013
_cell_angle_gamma 89.999998

_symmetry_space_group_name_H-M  'P1'

 loop_
_atom_site_type_symbol 
_atom_site_label 
_atom_site_fract_x 
_atom_site_fract_y 
_atom_site_fract_z
Cl Cl1 0.114907 0.676724 0.332801
Cl Cl2 0.114907 0.323276 0.832801
Cl Cl3 0.532189 0.109277 0.324131
Cl Cl4 0.532189 0.890723 0.824131
Cl Cl5 0.961821 0.177153 0.492122
Cl Cl6 0.961822 0.822847 0.992122
Cl Cl7 0.968687 0.816203 0.659963
Cl Cl8 0.968687 0.183798 0.159963
Cl Cl9 0.531625 0.397008 0.653072
Cl Cl10 0.531625 0.602992 0.153072
C C1 0.358249 0.725623 0.421526
C C2 0.358250 0.274377 0.921526
C C3 0.541036 0.917683 0.416909
C C4 0.541036 0.082316 0.916909
C C5 0.543036 0.602683 0.563769
C C6 0.543036 0.397317 0.063768
C C7 0.734086 0.947693 0.492192
C C8 0.734087 0.052307 0.992192
C C9 0.737384 0.786761 0.567790
C C10 0.737384 0.213239 0.067790
N N1 0.361978 0.575492 0.492894
N N2 0.361978 0.424508 0.992894
loop_
_atom_site_aniso_label
_atom_site_aniso_B_11
_atom_site_aniso_B_22
_atom_site_aniso_B_33
_atom_site_aniso_B_23
_atom_site_aniso_B_13
_atom_site_aniso_B_12
# Additional Data for B_Aniso: 0.000000
Cl1 0.357893 0.474610 0.325600 -0.006120 -0.068739 -0.064327
Cl2 0.357893 0.474610 0.325600 0.006120 -0.068739 0.064327
Cl3 0.464716 0.429288 0.311883 0.127715 0.029485 -0.043762
Cl4 0.464716 0.429288 0.311883 -0.127715 0.029485 0.043762
Cl5 0.329522 0.334619 0.409963 0.001381 0.063066 -0.105574
Cl6 0.329522 0.334619 0.409963 -0.001381 0.063066 0.105574
Cl7 0.361126 0.500507 0.310359 0.022130 -0.070453 -0.050544
Cl8 0.361126 0.500507 0.310359 -0.022130 -0.070453 0.050544
Cl9 0.482903 0.401969 0.325205 0.119114 0.058882 -0.048090
Cl10 0.482903 0.401969 0.325205 -0.119114 0.058882 0.048090
C1 0.319902 0.355858 0.290820 0.027758 -0.000199 -0.061665
C2 0.319902 0.355858 0.290820 -0.027758 -0.000199 0.061665
C3 0.329908 0.349147 0.287229 0.049235 0.009617 -0.058753
C4 0.329908 0.349147 0.287229 -0.049236 0.009617 0.058753
C5 0.341777 0.340936 0.291063 0.047573 0.019433 -0.056853
C6 0.341777 0.340936 0.291063 -0.047573 0.019433 0.056853
C7 0.312240 0.329724 0.297163 0.032343 0.014983 -0.063619
C8 0.312240 0.329724 0.297164 -0.032343 0.014983 0.063619
C9 0.322757 0.349384 0.287033 0.036516 -0.001387 -0.056922
C10 0.322757 0.349384 0.287033 -0.036516 -0.001387 0.056922
N1 0.367121 0.394074 0.313207 0.060062 -0.007661 -0.104502
N2 0.367121 0.394074 0.313207 -0.060062 -0.007661 0.104502
#end of data_B.cif_0K

data_B.cif_10K

_audit_creation_method 'generated by Molecular-Toolbox 1.0.1' 
_chemical_formula_sum
'Cl10 C10 N2'

_cell_length_a 5.350524 
_cell_length_b 5.192441 
_cell_length_c 15.058446 
_cell_angle_alpha 89.999991 
_cell_angle_beta 99.578013
_cell_angle_gamma 89.999998

_symmetry_space_group_name_H-M  'P1'

 loop_
_atom_site_type_symbol 
_atom_site_label 
_atom_site_fract_x 
_atom_site_fract_y 
_atom_site_fract_z
Cl Cl1 0.114907 0.676724 0.332801
Cl Cl2 0.114907 0.323276 0.832801
Cl Cl3 0.532189 0.109277 0.324131
Cl Cl4 0.532189 0.890723 0.824131
Cl Cl5 0.961821 0.177153 0.492122
Cl Cl6 0.961822 0.822847 0.992122
Cl Cl7 0.968687 0.816203 0.659963
Cl Cl8 0.968687 0.183798 0.159963
Cl Cl9 0.531625 0.397008 0.653072
Cl Cl10 0.531625 0.602992 0.153072
C C1 0.358249 0.725623 0.421526
C C2 0.358250 0.274377 0.921526
C C3 0.541036 0.917683 0.416909
C C4 0.541036 0.082316 0.916909
C C5 0.543036 0.602683 0.563769
C C6 0.543036 0.397317 0.063768
C C7 0.734086 0.947693 0.492192
C C8 0.734087 0.052307 0.992192
C C9 0.737384 0.786761 0.567790
C C10 0.737384 0.213239 0.067790
N N1 0.361978 0.575492 0.492894
N N2 0.361978 0.424508 0.992894
loop_
_atom_site_aniso_label
_atom_site_aniso_B_11
_atom_site_aniso_B_22
_atom_site_aniso_B_33
_atom_site_aniso_B_23
_atom_site_aniso_B_13
_atom_site_aniso_B_12
# Additional Data for B_Aniso: 10.000000
Cl1 0.368428 0.488664 0.334922 -0.008330 -0.068359 -0.065165
Cl2 0.368428 0.488664 0.334922 0.008330 -0.068359 0.065165
Cl3 0.476848 0.441763 0.322147 0.127715 0.031268 -0.043918
Cl4 0.476848 0.441764 0.322147 -0.127716 0.031268 0.043918
Cl5 0.340067 0.346226 0.421884 -0.001381 0.065519 -0.107207
Cl6 0.340067 0.346226 0.421884 0.001380 0.065519 0.107207
Cl7 0.371117 0.515035 0.320471 0.019997 -0.070484 -0.050513
Cl8 0.371117 0.515035 0.320472 -0.019997 -0.070484 0.050513
Cl9 0.495578 0.414365 0.334678 0.118562 0.060842 -0.048261
Cl10 0.495578 0.414365 0.334678 -0.118562 0.060842 0.048261
C1 0.329533 0.367307 0.299586 0.026022 0.000868 -0.062346
C2 0.329533 0.367307 0.299586 -0.026022 0.000868 0.062346
C3 0.339653 0.360122 0.296309 0.047894 0.011049 -0.059135
C4 0.339653 0.360122 0.296309 -0.047894 0.011049 0.059134
C5 0.351872 0.351911 0.299907 0.046073 0.020747 -0.057261
C6 0.351872 0.351911 0.299907 -0.046074 0.020747 0.057261
C7 0.321690 0.340383 0.306718 0.030369 0.016495 -0.064184
C8 0.321690 0.340383 0.306718 -0.030369 0.016495 0.064184
C9 0.332088 0.360596 0.296115 0.034542 -0.000499 -0.057176
C10 0.332088 0.360596 0.296115 -0.034542 -0.000499 0.057176
N1 0.377168 0.405443 0.322129 0.058327 -0.006256 -0.105728
N2 0.377168 0.405443 0.322129 -0.058327 -0.006256 0.105728
#end of data_B.cif_10K

data_B.cif_20K

_audit_creation_method 'generated by Molecular-Toolbox 1.0.1' 
_chemical_formula_sum
'Cl10 C10 N2'

_cell_length_a 5.350524 
_cell_length_b 5.192441 
_cell_length_c 15.058446 
_cell_angle_alpha 89.999991 
_cell_angle_beta 99.578013
_cell_angle_gamma 89.999998

_symmetry_space_group_name_H-M  'P1'

 loop_
_atom_site_type_symbol 
_atom_site_label 
_atom_site_fract_x 
_atom_site_fract_y 
_atom_site_fract_z
Cl Cl1 0.114907 0.676724 0.332801
Cl Cl2 0.114907 0.323276 0.832801
Cl Cl3 0.532189 0.109277 0.324131
Cl Cl4 0.532189 0.890723 0.824131
Cl Cl5 0.961821 0.177153 0.492122
Cl Cl6 0.961822 0.822847 0.992122
Cl Cl7 0.968687 0.816203 0.659963
Cl Cl8 0.968687 0.183798 0.159963
Cl Cl9 0.531625 0.397008 0.653072
Cl Cl10 0.531625 0.602992 0.153072
C C1 0.358249 0.725623 0.421526
C C2 0.358250 0.274377 0.921526
C C3 0.541036 0.917683 0.416909
C C4 0.541036 0.082316 0.916909
C C5 0.543036 0.602683 0.563769
C C6 0.543036 0.397317 0.063768
C C7 0.734086 0.947693 0.492192
C C8 0.734087 0.052307 0.992192
C C9 0.737384 0.786761 0.567790
C C10 0.737384 0.213239 0.067790
N N1 0.361978 0.575492 0.492894
N N2 0.361978 0.424508 0.992894
loop_
_atom_site_aniso_label
_atom_site_aniso_B_11
_atom_site_aniso_B_22
_atom_site_aniso_B_33
_atom_site_aniso_B_23
_atom_site_aniso_B_13
_atom_site_aniso_B_12
# Additional Data for B_Aniso: 20.000000
Cl1 0.411261 0.547092 0.371430 -0.017885 -0.070554 -0.066227
Cl2 0.411261 0.547092 0.371430 0.017885 -0.070554 0.066227
Cl3 0.532759 0.491427 0.362635 0.134975 0.042494 -0.040517
Cl4 0.532759 0.491427 0.362635 -0.134976 0.042494 0.040517
Cl5 0.381058 0.388231 0.477922 -0.013055 0.080714 -0.115010
Cl6 0.381058 0.388231 0.477922 0.013055 0.080714 0.115010
Cl7 0.411013 0.578359 0.360462 0.010592 -0.074269 -0.047034
Cl8 0.411013 0.578359 0.360462 -0.010592 -0.074269 0.047034
Cl9 0.555371 0.461424 0.371136 0.121953 0.072318 -0.045666
Cl10 0.555371 0.461424 0.371136 -0.121953 0.072318 0.045666
C1 0.364668 0.407654 0.330462 0.020574 0.004985 -0.063574
C2 0.364668 0.407654 0.330462 -0.020574 0.004985 0.063574
C3 0.376089 0.397390 0.328990 0.045443 0.018272 -0.058067
C4 0.376089 0.397390 0.328990 -0.045443 0.018272 0.058067
C5 0.390759 0.389573 0.330854 0.042598 0.026894 -0.057222
C6 0.390759 0.389573 0.330855 -0.042598 0.026894 0.057222
C7 0.355163 0.376229 0.343270 0.023895 0.023907 -0.065351
C8 0.355163 0.376229 0.343270 -0.023895 0.023907 0.065351
C9 0.365832 0.399758 0.328732 0.027905 0.002822 -0.055645
C10 0.365832 0.399758 0.328732 -0.027905 0.002822 0.055645
N1 0.415168 0.444606 0.355288 0.053124 -0.000047 -0.110964
N2 0.415168 0.444606 0.355288 -0.053124 -0.000047 0.110964
#end of data_B.cif_20K

data_B.cif_30K

_audit_creation_method 'generated by Molecular-Toolbox 1.0.1' 
_chemical_formula_sum
'Cl10 C10 N2'

_cell_length_a 5.350524 
_cell_length_b 5.192441 
_cell_length_c 15.058446 
_cell_angle_alpha 89.999991 
_cell_angle_beta 99.578013
_cell_angle_gamma 89.999998

_symmetry_space_group_name_H-M  'P1'

 loop_
_atom_site_type_symbol 
_atom_site_label 
_atom_site_fract_x 
_atom_site_fract_y 
_atom_site_fract_z
Cl Cl1 0.114907 0.676724 0.332801
Cl Cl2 0.114907 0.323276 0.832801
Cl Cl3 0.532189 0.109277 0.324131
Cl Cl4 0.532189 0.890723 0.824131
Cl Cl5 0.961821 0.177153 0.492122
Cl Cl6 0.961822 0.822847 0.992122
Cl Cl7 0.968687 0.816203 0.659963
Cl Cl8 0.968687 0.183798 0.159963
Cl Cl9 0.531625 0.397008 0.653072
Cl Cl10 0.531625 0.602992 0.153072
C C1 0.358249 0.725623 0.421526
C C2 0.358250 0.274377 0.921526
C C3 0.541036 0.917683 0.416909
C C4 0.541036 0.082316 0.916909
C C5 0.543036 0.602683 0.563769
C C6 0.543036 0.397317 0.063768
C C7 0.734086 0.947693 0.492192
C C8 0.734087 0.052307 0.992192
C C9 0.737384 0.786761 0.567790
C C10 0.737384 0.213239 0.067790
N N1 0.361978 0.575492 0.492894
N N2 0.361978 0.424508 0.992894
loop_
_atom_site_aniso_label
_atom_site_aniso_B_11
_atom_site_aniso_B_22
_atom_site_aniso_B_33
_atom_site_aniso_B_23
_atom_site_aniso_B_13
_atom_site_aniso_B_12
# Additional Data for B_Aniso: 30.000000
Cl1 0.477234 0.637182 0.429051 -0.030911 -0.077498 -0.069586
Cl2 0.477234 0.637182 0.429051 0.030910 -0.077498 0.069586
Cl3 0.621001 0.569437 0.423886 0.151714 0.058011 -0.037390
Cl4 0.621001 0.569437 0.423886 -0.151714 0.058011 0.037390
Cl5 0.441325 0.448475 0.563556 -0.028512 0.104125 -0.127809
Cl6 0.441325 0.448475 0.563556 0.028512 0.104125 0.127808
Cl7 0.473284 0.677134 0.420776 0.000239 -0.083089 -0.043949
Cl8 0.473284 0.677134 0.420776 -0.000240 -0.083090 0.043948
Cl9 0.649873 0.533669 0.428505 0.133086 0.090598 -0.044027
Cl10 0.649873 0.533669 0.428505 -0.133086 0.090598 0.044027
C1 0.415413 0.465056 0.376342 0.013469 0.010896 -0.065158
C2 0.415413 0.465056 0.376342 -0.013469 0.010896 0.065158
C3 0.428831 0.449975 0.376274 0.043701 0.029323 -0.055869
C4 0.428831 0.449975 0.376274 -0.043702 0.029323 0.055869
C5 0.447653 0.442632 0.376877 0.039596 0.036947 -0.056949
C6 0.447653 0.442632 0.376877 -0.039597 0.036947 0.056949
C7 0.402856 0.425735 0.396634 0.015841 0.035524 -0.066783
C8 0.402856 0.425735 0.396634 -0.015841 0.035524 0.066783
C9 0.414359 0.454949 0.376037 0.019686 0.007964 -0.052901
C10 0.414359 0.454949 0.376037 -0.019686 0.007964 0.052901
N1 0.470473 0.500349 0.405973 0.047137 0.009781 -0.119678
N2 0.470473 0.500349 0.405973 -0.047137 0.009781 0.119678
#end of data_B.cif_30K

data_B.cif_40K

_audit_creation_method 'generated by Molecular-Toolbox 1.0.1' 
_chemical_formula_sum
'Cl10 C10 N2'

_cell_length_a 5.350524 
_cell_length_b 5.192441 
_cell_length_c 15.058446 
_cell_angle_alpha 89.999991 
_cell_angle_beta 99.578013
_cell_angle_gamma 89.999998

_symmetry_space_group_name_H-M  'P1'

 loop_
_atom_site_type_symbol 
_atom_site_label 
_atom_site_fract_x 
_atom_site_fract_y 
_atom_site_fract_z
Cl Cl1 0.114907 0.676724 0.332801
Cl Cl2 0.114907 0.323276 0.832801
Cl Cl3 0.532189 0.109277 0.324131
Cl Cl4 0.532189 0.890723 0.824131
Cl Cl5 0.961821 0.177153 0.492122
Cl Cl6 0.961822 0.822847 0.992122
Cl Cl7 0.968687 0.816203 0.659963
Cl Cl8 0.968687 0.183798 0.159963
Cl Cl9 0.531625 0.397008 0.653072
Cl Cl10 0.531625 0.602992 0.153072
C C1 0.358249 0.725623 0.421526
C C2 0.358250 0.274377 0.921526
C C3 0.541036 0.917683 0.416909
C C4 0.541036 0.082316 0.916909
C C5 0.543036 0.602683 0.563769
C C6 0.543036 0.397317 0.063768
C C7 0.734086 0.947693 0.492192
C C8 0.734087 0.052307 0.992192
C C9 0.737384 0.786761 0.567790
C C10 0.737384 0.213239 0.067790
N N1 0.361978 0.575492 0.492894
N N2 0.361978 0.424508 0.992894
loop_
_atom_site_aniso_label
_atom_site_aniso_B_11
_atom_site_aniso_B_22
_atom_site_aniso_B_33
_atom_site_aniso_B_23
_atom_site_aniso_B_13
_atom_site_aniso_B_12
# Additional Data for B_Aniso: 40.000000
Cl1 0.555861 0.744721 0.498063 -0.044088 -0.088313 -0.076396
Cl2 0.555861 0.744721 0.498063 0.044088 -0.088313 0.076396
Cl3 0.726534 0.663790 0.495644 0.174617 0.073550 -0.036886
Cl4 0.726534 0.663790 0.495644 -0.174617 0.073550 0.036886
Cl5 0.511674 0.518667 0.662848 -0.044278 0.130127 -0.144319
Cl6 0.511674 0.518667 0.662848 0.044277 0.130127 0.144319
Cl7 0.548439 0.795016 0.491454 -0.008291 -0.095644 -0.043515
Cl8 0.548439 0.795016 0.491454 0.008291 -0.095644 0.043515
Cl9 0.762755 0.620601 0.497323 0.149912 0.110848 -0.045245
Cl10 0.762755 0.620601 0.497323 -0.149912 0.110848 0.045245
C1 0.473781 0.530985 0.429726 0.005970 0.017277 -0.067509
C2 0.473781 0.530985 0.429726 -0.005970 0.017277 0.067509
C3 0.489419 0.510219 0.430584 0.042591 0.041698 -0.053564
C4 0.489419 0.510219 0.430584 -0.042592 0.041698 0.053564
C5 0.513407 0.503350 0.430400 0.037543 0.048634 -0.057138
C6 0.513407 0.503350 0.430400 -0.037543 0.048634 0.057138
C7 0.457368 0.481953 0.457736 0.007473 0.048663 -0.068658
C8 0.457368 0.481953 0.457736 -0.007473 0.048663 0.068658
C9 0.470164 0.517878 0.430372 0.011308 0.013653 -0.050106
C10 0.470164 0.517878 0.430372 -0.011309 0.013653 0.050106
N1 0.534523 0.564699 0.465740 0.041550 0.020808 -0.130817
N2 0.534523 0.564699 0.465740 -0.041550 0.020808 0.130817
#end of data_B.cif_40K

data_B.cif_50K

_audit_creation_method 'generated by Molecular-Toolbox 1.0.1' 
_chemical_formula_sum
'Cl10 C10 N2'

_cell_length_a 5.350524 
_cell_length_b 5.192441 
_cell_length_c 15.058446 
_cell_angle_alpha 89.999991 
_cell_angle_beta 99.578013
_cell_angle_gamma 89.999998

_symmetry_space_group_name_H-M  'P1'

 loop_
_atom_site_type_symbol 
_atom_site_label 
_atom_site_fract_x 
_atom_site_fract_y 
_atom_site_fract_z
Cl Cl1 0.114907 0.676724 0.332801
Cl Cl2 0.114907 0.323276 0.832801
Cl Cl3 0.532189 0.109277 0.324131
Cl Cl4 0.532189 0.890723 0.824131
Cl Cl5 0.961821 0.177153 0.492122
Cl Cl6 0.961822 0.822847 0.992122
Cl Cl7 0.968687 0.816203 0.659963
Cl Cl8 0.968687 0.183798 0.159963
Cl Cl9 0.531625 0.397008 0.653072
Cl Cl10 0.531625 0.602992 0.153072
C C1 0.358249 0.725623 0.421526
C C2 0.358250 0.274377 0.921526
C C3 0.541036 0.917683 0.416909
C C4 0.541036 0.082316 0.916909
C C5 0.543036 0.602683 0.563769
C C6 0.543036 0.397317 0.063768
C C7 0.734086 0.947693 0.492192
C C8 0.734087 0.052307 0.992192
C C9 0.737384 0.786761 0.567790
C C10 0.737384 0.213239 0.067790
N N1 0.361978 0.575492 0.492894
N N2 0.361978 0.424508 0.992894
loop_
_atom_site_aniso_label
_atom_site_aniso_B_11
_atom_site_aniso_B_22
_atom_site_aniso_B_33
_atom_site_aniso_B_23
_atom_site_aniso_B_13
_atom_site_aniso_B_12
# Additional Data for B_Aniso: 50.000000
Cl1 0.641595 0.862288 0.573405 -0.056708 -0.101661 -0.085681
Cl2 0.641595 0.862288 0.573405 0.056707 -0.101661 0.085681
Cl3 0.841676 0.767618 0.573014 0.201316 0.088457 -0.038624
Cl4 0.841676 0.767618 0.573014 -0.201316 0.088457 0.038624
Cl5 0.587979 0.595019 0.769487 -0.059406 0.156652 -0.163680
Cl6 0.587979 0.595019 0.769487 0.059406 0.156652 0.163680
Cl7 0.630987 0.923874 0.567751 -0.015238 -0.110851 -0.045462
Cl8 0.630987 0.923874 0.567751 0.015238 -0.110851 0.045462
Cl9 0.885707 0.715981 0.572380 0.170374 0.131661 -0.048733
Cl10 0.885707 0.715981 0.572380 -0.170374 0.131661 0.048733
C1 0.536068 0.601572 0.487140 -0.001449 0.023549 -0.070548
C2 0.536068 0.601572 0.487140 0.001449 0.023549 0.070548
C3 0.554122 0.574648 0.488447 0.041956 0.054507 -0.051569
C4 0.554122 0.574648 0.488447 -0.041956 0.054507 0.051569
C5 0.583799 0.568410 0.487870 0.036202 0.060977 -0.057909
C6 0.583799 0.568410 0.487870 -0.036202 0.060977 0.057909
C7 0.515545 0.541960 0.522786 -0.000816 0.062304 -0.071142
C8 0.515545 0.541960 0.522786 0.000816 0.062304 0.071142
C9 0.529926 0.584991 0.488182 0.003010 0.019529 -0.047531
C10 0.529926 0.584991 0.488182 -0.003011 0.019529 0.047531
N1 0.603256 0.634023 0.530325 0.036519 0.032014 -0.143731
N2 0.603256 0.634023 0.530325 -0.036520 0.032014 0.143731
#end of data_B.cif_50K

data_B.cif_60K

_audit_creation_method 'generated by Molecular-Toolbox 1.0.1' 
_chemical_formula_sum
'Cl10 C10 N2'

_cell_length_a 5.350524 
_cell_length_b 5.192441 
_cell_length_c 15.058446 
_cell_angle_alpha 89.999991 
_cell_angle_beta 99.578013
_cell_angle_gamma 89.999998

_symmetry_space_group_name_H-M  'P1'

 loop_
_atom_site_type_symbol 
_atom_site_label 
_atom_site_fract_x 
_atom_site_fract_y 
_atom_site_fract_z
Cl Cl1 0.114907 0.676724 0.332801
Cl Cl2 0.114907 0.323276 0.832801
Cl Cl3 0.532189 0.109277 0.324131
Cl Cl4 0.532189 0.890723 0.824131
Cl Cl5 0.961821 0.177153 0.492122
Cl Cl6 0.961822 0.822847 0.992122
Cl Cl7 0.968687 0.816203 0.659963
Cl Cl8 0.968687 0.183798 0.159963
Cl Cl9 0.531625 0.397008 0.653072
Cl Cl10 0.531625 0.602992 0.153072
C C1 0.358249 0.725623 0.421526
C C2 0.358250 0.274377 0.921526
C C3 0.541036 0.917683 0.416909
C C4 0.541036 0.082316 0.916909
C C5 0.543036 0.602683 0.563769
C C6 0.543036 0.397317 0.063768
C C7 0.734086 0.947693 0.492192
C C8 0.734087 0.052307 0.992192
C C9 0.737384 0.786761 0.567790
C C10 0.737384 0.213239 0.067790
N N1 0.361978 0.575492 0.492894
N N2 0.361978 0.424508 0.992894
loop_
_atom_site_aniso_label
_atom_site_aniso_B_11
_atom_site_aniso_B_22
_atom_site_aniso_B_33
_atom_site_aniso_B_23
_atom_site_aniso_B_13
_atom_site_aniso_B_12
# Additional Data for B_Aniso: 60.000000
Cl1 0.731768 0.986171 0.652625 -0.068850 -0.116779 -0.096755
Cl2 0.731768 0.986171 0.652625 0.068850 -0.116779 0.096755
Cl3 0.962737 0.877289 0.653783 0.230466 0.102990 -0.041896
Cl4 0.962737 0.877289 0.653783 -0.230467 0.102990 0.041896
Cl5 0.668165 0.675476 0.880548 -0.073978 0.183447 -0.185128
Cl6 0.668165 0.675476 0.880548 0.073977 0.183447 0.185128
Cl7 0.718217 1.059364 0.647452 -0.021076 -0.127830 -0.049091
Cl8 0.718217 1.059364 0.647452 0.021076 -0.127830 0.049091
Cl9 1.014824 0.816651 0.651228 0.193288 0.152634 -0.053832
Cl10 1.014824 0.816651 0.651228 -0.193289 0.152634 0.053832
C1 0.600870 0.675002 0.546845 -0.008629 0.029734 -0.074169
C2 0.600870 0.675002 0.546845 0.008629 0.029734 0.074169
C3 0.621286 0.641603 0.548364 0.041795 0.067502 -0.049883
C4 0.621286 0.641603 0.548364 -0.041795 0.067502 0.049883
C5 0.656941 0.635997 0.547710 0.035415 0.073480 -0.059209
C6 0.656941 0.635997 0.547710 -0.035415 0.073480 0.059209
C7 0.576011 0.604336 0.590127 -0.008787 0.076093 -0.074196
C8 0.576011 0.604336 0.590127 0.008787 0.076093 0.074196
C9 0.591893 0.654631 0.548126 -0.004971 0.025292 -0.045214
C10 0.591893 0.654631 0.548126 0.004971 0.025292 0.045214
N1 0.675035 0.706664 0.597833 0.032202 0.043161 -0.158082
N2 0.675035 0.706664 0.597833 -0.032202 0.043161 0.158082
#end of data_B.cif_60K

data_B.cif_70K

_audit_creation_method 'generated by Molecular-Toolbox 1.0.1' 
_chemical_formula_sum
'Cl10 C10 N2'

_cell_length_a 5.350524 
_cell_length_b 5.192441 
_cell_length_c 15.058446 
_cell_angle_alpha 89.999991 
_cell_angle_beta 99.578013
_cell_angle_gamma 89.999998

_symmetry_space_group_name_H-M  'P1'

 loop_
_atom_site_type_symbol 
_atom_site_label 
_atom_site_fract_x 
_atom_site_fract_y 
_atom_site_fract_z
Cl Cl1 0.114907 0.676724 0.332801
Cl Cl2 0.114907 0.323276 0.832801
Cl Cl3 0.532189 0.109277 0.324131
Cl Cl4 0.532189 0.890723 0.824131
Cl Cl5 0.961821 0.177153 0.492122
Cl Cl6 0.961822 0.822847 0.992122
Cl Cl7 0.968687 0.816203 0.659963
Cl Cl8 0.968687 0.183798 0.159963
Cl Cl9 0.531625 0.397008 0.653072
Cl Cl10 0.531625 0.602992 0.153072
C C1 0.358249 0.725623 0.421526
C C2 0.358250 0.274377 0.921526
C C3 0.541036 0.917683 0.416909
C C4 0.541036 0.082316 0.916909
C C5 0.543036 0.602683 0.563769
C C6 0.543036 0.397317 0.063768
C C7 0.734086 0.947693 0.492192
C C8 0.734087 0.052307 0.992192
C C9 0.737384 0.786761 0.567790
C C10 0.737384 0.213239 0.067790
N N1 0.361978 0.575492 0.492894
N N2 0.361978 0.424508 0.992894
loop_
_atom_site_aniso_label
_atom_site_aniso_B_11
_atom_site_aniso_B_22
_atom_site_aniso_B_33
_atom_site_aniso_B_23
_atom_site_aniso_B_13
_atom_site_aniso_B_12
# Additional Data for B_Aniso: 70.000000
Cl1 0.824809 1.114318 0.734219 -0.080754 -0.132984 -0.108956
Cl2 0.824809 1.114318 0.734219 0.080753 -0.132984 0.108956
Cl3 1.087767 0.990750 0.736686 0.261198 0.117173 -0.046147
Cl4 1.087767 0.990750 0.736686 -0.261198 0.117173 0.046147
Cl5 0.750940 0.758775 0.994691 -0.087994 0.210210 -0.208040
Cl6 0.750940 0.758775 0.994691 0.087994 0.210210 0.208039
Cl7 0.808488 1.199275 0.729290 -0.026280 -0.145858 -0.053703
Cl8 0.808488 1.199275 0.729290 0.026280 -0.145858 0.053703
Cl9 1.148077 0.920874 0.732604 0.217705 0.173790 -0.059769
Cl10 1.148077 0.920874 0.732604 -0.217705 0.173790 0.059769
C1 0.667196 0.750327 0.608052 -0.015651 0.035780 -0.078231
C2 0.667196 0.750327 0.608052 0.015651 0.035780 0.078231
C3 0.689992 0.710296 0.609546 0.041871 0.080395 -0.048469
C4 0.689992 0.710296 0.609546 -0.041871 0.080395 0.048469
C5 0.731939 0.705479 0.608971 0.035023 0.086141 -0.060910
C6 0.731939 0.705479 0.608971 -0.035023 0.086141 0.060910
C7 0.638072 0.668291 0.658810 -0.016600 0.089948 -0.077534
C8 0.638072 0.668291 0.658810 0.016600 0.089948 0.077534
C9 0.655582 0.725929 0.609334 -0.012715 0.031031 -0.043169
C10 0.655582 0.725929 0.609334 0.012715 0.031031 0.043169
N1 0.748803 0.781594 0.667160 0.028360 0.053987 -0.173443
N2 0.748803 0.781594 0.667160 -0.028361 0.053987 0.173443
#end of data_B.cif_70K

data_B.cif_80K

_audit_creation_method 'generated by Molecular-Toolbox 1.0.1' 
_chemical_formula_sum
'Cl10 C10 N2'

_cell_length_a 5.350524 
_cell_length_b 5.192441 
_cell_length_c 15.058446 
_cell_angle_alpha 89.999991 
_cell_angle_beta 99.578013
_cell_angle_gamma 89.999998

_symmetry_space_group_name_H-M  'P1'

 loop_
_atom_site_type_symbol 
_atom_site_label 
_atom_site_fract_x 
_atom_site_fract_y 
_atom_site_fract_z
Cl Cl1 0.114907 0.676724 0.332801
Cl Cl2 0.114907 0.323276 0.832801
Cl Cl3 0.532189 0.109277 0.324131
Cl Cl4 0.532189 0.890723 0.824131
Cl Cl5 0.961821 0.177153 0.492122
Cl Cl6 0.961822 0.822847 0.992122
Cl Cl7 0.968687 0.816203 0.659963
Cl Cl8 0.968687 0.183798 0.159963
Cl Cl9 0.531625 0.397008 0.653072
Cl Cl10 0.531625 0.602992 0.153072
C C1 0.358249 0.725623 0.421526
C C2 0.358250 0.274377 0.921526
C C3 0.541036 0.917683 0.416909
C C4 0.541036 0.082316 0.916909
C C5 0.543036 0.602683 0.563769
C C6 0.543036 0.397317 0.063768
C C7 0.734086 0.947693 0.492192
C C8 0.734087 0.052307 0.992192
C C9 0.737384 0.786761 0.567790
C C10 0.737384 0.213239 0.067790
N N1 0.361978 0.575492 0.492894
N N2 0.361978 0.424508 0.992894
loop_
_atom_site_aniso_label
_atom_site_aniso_B_11
_atom_site_aniso_B_22
_atom_site_aniso_B_33
_atom_site_aniso_B_23
_atom_site_aniso_B_13
_atom_site_aniso_B_12
# Additional Data for B_Aniso: 80.000000
Cl1 0.919808 1.245386 0.817554 -0.092498 -0.150068 -0.121832
Cl2 0.919808 1.245386 0.817554 0.092498 -0.150068 0.121832
Cl3 1.215625 1.106817 0.821170 0.292957 0.131228 -0.051005
Cl4 1.215625 1.106817 0.821170 -0.292958 0.131228 0.051005
Cl5 0.835615 0.844049 1.110967 -0.101771 0.237095 -0.232079
Cl6 0.835615 0.844049 1.110967 0.101771 0.237094 0.232079
Cl7 0.900813 1.342187 0.812632 -0.031009 -0.164728 -0.059014
Cl8 0.900813 1.342187 0.812632 0.031009 -0.164728 0.059014
Cl9 1.284165 1.027544 0.815718 0.243307 0.195078 -0.066363
Cl10 1.284165 1.027544 0.815718 -0.243307 0.195078 0.066441
C1 0.734671 0.826994 0.670208 -0.022514 0.041672 -0.082733
C2 0.734671 0.826994 0.670208 0.022514 0.041672 0.082733
C3 0.759824 0.780172 0.671675 0.042185 0.093289 -0.047404
C4 0.759824 0.780172 0.671675 -0.042185 0.093289 0.047404
C5 0.808192 0.776067 0.671260 0.034948 0.098738 -0.063025
C6 0.808192 0.776067 0.671260 -0.034948 0.098738 0.063025
C7 0.701159 0.733351 0.728521 -0.024175 0.103741 -0.081300
C8 0.701159 0.733351 0.728521 0.024175 0.103741 0.081300
C9 0.720293 0.798490 0.671490 -0.020300 0.036694 -0.041486
C10 0.720293 0.798490 0.671490 0.020300 0.036694 0.041486
N1 0.824167 0.858340 0.737830 0.025073 0.064646 -0.189723
N2 0.824167 0.858340 0.737830 -0.025074 0.064646 0.189723
#end of data_B.cif_80K

data_B.cif_90K

_audit_creation_method 'generated by Molecular-Toolbox 1.0.1' 
_chemical_formula_sum
'Cl10 C10 N2'

_cell_length_a 5.350524 
_cell_length_b 5.192441 
_cell_length_c 15.058446 
_cell_angle_alpha 89.999991 
_cell_angle_beta 99.578013
_cell_angle_gamma 89.999998

_symmetry_space_group_name_H-M  'P1'

 loop_
_atom_site_type_symbol 
_atom_site_label 
_atom_site_fract_x 
_atom_site_fract_y 
_atom_site_fract_z
Cl Cl1 0.114907 0.676724 0.332801
Cl Cl2 0.114907 0.323276 0.832801
Cl Cl3 0.532189 0.109277 0.324131
Cl Cl4 0.532189 0.890723 0.824131
Cl Cl5 0.961821 0.177153 0.492122
Cl Cl6 0.961822 0.822847 0.992122
Cl Cl7 0.968687 0.816203 0.659963
Cl Cl8 0.968687 0.183798 0.159963
Cl Cl9 0.531625 0.397008 0.653072
Cl Cl10 0.531625 0.602992 0.153072
C C1 0.358249 0.725623 0.421526
C C2 0.358250 0.274377 0.921526
C C3 0.541036 0.917683 0.416909
C C4 0.541036 0.082316 0.916909
C C5 0.543036 0.602683 0.563769
C C6 0.543036 0.397317 0.063768
C C7 0.734086 0.947693 0.492192
C C8 0.734087 0.052307 0.992192
C C9 0.737384 0.786761 0.567790
C C10 0.737384 0.213239 0.067790
N N1 0.361978 0.575492 0.492894
N N2 0.361978 0.424508 0.992894
loop_
_atom_site_aniso_label
_atom_site_aniso_B_11
_atom_site_aniso_B_22
_atom_site_aniso_B_33
_atom_site_aniso_B_23
_atom_site_aniso_B_13
_atom_site_aniso_B_12
# Additional Data for B_Aniso: 90.000000
Cl1 1.016375 1.378586 0.902235 -0.104083 -0.167629 -0.135225
Cl2 1.016375 1.378586 0.902235 0.104083 -0.167629 0.135225
Cl3 1.345536 1.224778 0.906838 0.325507 0.145322 -0.056196
Cl4 1.345536 1.224778 0.906838 -0.325508 0.145322 0.056196
Cl5 0.921695 0.930822 1.229059 -0.115310 0.263971 -0.256856
Cl6 0.921695 0.930822 1.229059 0.115309 0.263971 0.256856
Cl7 0.994754 1.487389 0.897240 -0.035501 -0.184166 -0.064753
Cl8 0.994754 1.487389 0.897240 0.035500 -0.184166 0.064752
Cl9 1.422411 1.135952 0.900095 0.269621 0.216496 -0.073382
Cl10 1.422411 1.135952 0.900095 -0.269621 0.216496 0.073382
C1 0.803010 0.904608 0.733154 -0.029219 0.047461 -0.087520
C2 0.803010 0.904608 0.733154 0.029218 0.047461 0.087520
C3 0.830517 0.851076 0.734516 0.042815 0.106068 -0.046520
C4 0.830517 0.851076 0.734516 -0.042815 0.106068 0.046519
C5 0.885333 0.847681 0.734259 0.035031 0.111298 -0.065346
C6 0.885333 0.847681 0.734259 -0.035031 0.111298 0.065346
C7 0.765055 0.799359 0.798864 -0.031592 0.117483 -0.085350
C8 0.765055 0.799359 0.798864 0.031592 0.117483 0.085350
C9 0.785890 0.871920 0.734279 -0.027648 0.042307 -0.039997
C10 0.785890 0.871920 0.734279 0.027648 0.042307 0.039997
N1 0.900652 0.936349 0.809371 0.022183 0.075061 -0.206637
N2 0.900652 0.936349 0.809371 -0.022183 0.075060 0.206637
#end of data_B.cif_90K

data_B.cif_100K

_audit_creation_method 'generated by Molecular-Toolbox 1.0.1' 
_chemical_formula_sum
'Cl10 C10 N2'

_cell_length_a 5.350524 
_cell_length_b 5.192441 
_cell_length_c 15.058446 
_cell_angle_alpha 89.999991 
_cell_angle_beta 99.578013
_cell_angle_gamma 89.999998

_symmetry_space_group_name_H-M  'P1'

 loop_
_atom_site_type_symbol 
_atom_site_label 
_atom_site_fract_x 
_atom_site_fract_y 
_atom_site_fract_z
Cl Cl1 0.114907 0.676724 0.332801
Cl Cl2 0.114907 0.323276 0.832801
Cl Cl3 0.532189 0.109277 0.324131
Cl Cl4 0.532189 0.890723 0.824131
Cl Cl5 0.961821 0.177153 0.492122
Cl Cl6 0.961822 0.822847 0.992122
Cl Cl7 0.968687 0.816203 0.659963
Cl Cl8 0.968687 0.183798 0.159963
Cl Cl9 0.531625 0.397008 0.653072
Cl Cl10 0.531625 0.602992 0.153072
C C1 0.358249 0.725623 0.421526
C C2 0.358250 0.274377 0.921526
C C3 0.541036 0.917683 0.416909
C C4 0.541036 0.082316 0.916909
C C5 0.543036 0.602683 0.563769
C C6 0.543036 0.397317 0.063768
C C7 0.734086 0.947693 0.492192
C C8 0.734087 0.052307 0.992192
C C9 0.737384 0.786761 0.567790
C C10 0.737384 0.213239 0.067790
N N1 0.361978 0.575492 0.492894
N N2 0.361978 0.424508 0.992894
loop_
_atom_site_aniso_label
_atom_site_aniso_B_11
_atom_site_aniso_B_22
_atom_site_aniso_B_33
_atom_site_aniso_B_23
_atom_site_aniso_B_13
_atom_site_aniso_B_12
# Additional Data for B_Aniso: 100.000000
Cl1 1.113986 1.513445 0.987865 -0.115589 -0.185656 -0.148839
Cl2 1.113986 1.513445 0.987865 0.115589 -0.185656 0.148839
Cl3 1.476957 1.344082 0.993455 0.358690 0.159417 -0.061671
Cl4 1.476957 1.344082 0.993455 -0.358690 0.159417 0.061671
Cl5 1.008935 1.018780 1.348416 -0.128690 0.290980 -0.282230
Cl6 1.008935 1.018780 1.348416 0.128689 0.290979 0.282230
Cl7 1.089841 1.634249 0.982719 -0.039833 -0.204005 -0.070776
Cl8 1.089841 1.634249 0.982719 0.039833 -0.204005 0.070775
Cl9 1.562298 1.245702 0.985499 0.296567 0.238084 -0.080606
Cl10 1.562298 1.245702 0.985499 -0.296567 0.238084 0.080606
C1 0.872004 0.983013 0.796653 -0.035765 0.053186 -0.092514
C2 0.872004 0.983013 0.796653 0.035765 0.053186 0.092514
C3 0.901941 0.922690 0.797910 0.043525 0.118782 -0.045933
C4 0.901941 0.922690 0.797910 -0.043525 0.118782 0.045933
C5 0.963130 0.920005 0.797891 0.035431 0.123807 -0.067926
C6 0.963130 0.920005 0.797892 -0.035431 0.123807 0.067926
C7 0.829579 0.866078 0.869760 -0.038771 0.131083 -0.089672
C8 0.829579 0.866078 0.869760 0.038771 0.131083 0.089672
C9 0.852192 0.946140 0.797621 -0.034838 0.047777 -0.038793
C10 0.852192 0.946140 0.797621 0.034838 0.047777 0.038793
N1 0.978102 1.015543 0.881702 0.019688 0.085217 -0.224185
N2 0.978102 1.015543 0.881702 -0.019688 0.085216 0.224185
#end of data_B.cif_100K

data_B.cif_110K

_audit_creation_method 'generated by Molecular-Toolbox 1.0.1' 
_chemical_formula_sum
'Cl10 C10 N2'

_cell_length_a 5.350524 
_cell_length_b 5.192441 
_cell_length_c 15.058446 
_cell_angle_alpha 89.999991 
_cell_angle_beta 99.578013
_cell_angle_gamma 89.999998

_symmetry_space_group_name_H-M  'P1'

 loop_
_atom_site_type_symbol 
_atom_site_label 
_atom_site_fract_x 
_atom_site_fract_y 
_atom_site_fract_z
Cl Cl1 0.114907 0.676724 0.332801
Cl Cl2 0.114907 0.323276 0.832801
Cl Cl3 0.532189 0.109277 0.324131
Cl Cl4 0.532189 0.890723 0.824131
Cl Cl5 0.961821 0.177153 0.492122
Cl Cl6 0.961822 0.822847 0.992122
Cl Cl7 0.968687 0.816203 0.659963
Cl Cl8 0.968687 0.183798 0.159963
Cl Cl9 0.531625 0.397008 0.653072
Cl Cl10 0.531625 0.602992 0.153072
C C1 0.358249 0.725623 0.421526
C C2 0.358250 0.274377 0.921526
C C3 0.541036 0.917683 0.416909
C C4 0.541036 0.082316 0.916909
C C5 0.543036 0.602683 0.563769
C C6 0.543036 0.397317 0.063768
C C7 0.734086 0.947693 0.492192
C C8 0.734087 0.052307 0.992192
C C9 0.737384 0.786761 0.567790
C C10 0.737384 0.213239 0.067790
N N1 0.361978 0.575492 0.492894
N N2 0.361978 0.424508 0.992894
loop_
_atom_site_aniso_label
_atom_site_aniso_B_11
_atom_site_aniso_B_22
_atom_site_aniso_B_33
_atom_site_aniso_B_23
_atom_site_aniso_B_13
_atom_site_aniso_B_12
# Additional Data for B_Aniso: 110.000000
Cl1 1.212562 1.649645 1.074286 -0.127174 -0.203941 -0.162777
Cl2 1.212562 1.649645 1.074286 0.127173 -0.203941 0.162777
Cl3 1.609673 1.464570 1.080704 0.392188 0.173538 -0.067248
Cl4 1.609673 1.464570 1.080704 -0.392189 0.173538 0.067248
Cl5 1.096945 1.107685 1.468799 -0.141911 0.318082 -0.307966
Cl6 1.096945 1.107685 1.468799 0.141910 0.318082 0.307966
Cl7 1.185840 1.782372 1.068909 -0.044008 -0.224038 -0.077005
Cl8 1.185840 1.782372 1.068909 0.044007 -0.224038 0.077005
Cl9 1.703406 1.356478 1.071614 0.323908 0.259711 -0.088075
Cl10 1.703406 1.356478 1.071614 -0.323908 0.259711 0.088075
C1 0.941493 1.062048 0.860548 -0.042153 0.058821 -0.097715
C2 0.941493 1.062048 0.860548 0.042152 0.058821 0.097715
C3 0.973859 0.994935 0.861621 0.044472 0.131393 -0.045618
C4 0.973859 0.994935 0.861621 -0.044472 0.131393 0.045618
C5 1.041447 0.992882 0.861840 0.035910 0.136290 -0.070726
C6 1.041447 0.992882 0.861840 -0.035910 0.136290 0.070726
C7 0.894627 0.933428 0.941131 -0.045871 0.144684 -0.094136
C8 0.894627 0.933428 0.941131 0.045871 0.144684 0.094136
C9 0.918990 1.020912 0.861359 -0.041869 0.053157 -0.037718
C10 0.918990 1.020912 0.861359 0.041869 0.053157 0.037718
N1 1.056333 1.095526 0.954587 0.017510 0.095231 -0.242147
N2 1.056333 1.095526 0.954587 -0.017510 0.095230 0.242147
#end of data_B.cif_110K

data_B.cif_120K

_audit_creation_method 'generated by Molecular-Toolbox 1.0.1' 
_chemical_formula_sum
'Cl10 C10 N2'

_cell_length_a 5.350524 
_cell_length_b 5.192441 
_cell_length_c 15.058446 
_cell_angle_alpha 89.999991 
_cell_angle_beta 99.578013
_cell_angle_gamma 89.999998

_symmetry_space_group_name_H-M  'P1'

 loop_
_atom_site_type_symbol 
_atom_site_label 
_atom_site_fract_x 
_atom_site_fract_y 
_atom_site_fract_z
Cl Cl1 0.114907 0.676724 0.332801
Cl Cl2 0.114907 0.323276 0.832801
Cl Cl3 0.532189 0.109277 0.324131
Cl Cl4 0.532189 0.890723 0.824131
Cl Cl5 0.961821 0.177153 0.492122
Cl Cl6 0.961822 0.822847 0.992122
Cl Cl7 0.968687 0.816203 0.659963
Cl Cl8 0.968687 0.183798 0.159963
Cl Cl9 0.531625 0.397008 0.653072
Cl Cl10 0.531625 0.602992 0.153072
C C1 0.358249 0.725623 0.421526
C C2 0.358250 0.274377 0.921526
C C3 0.541036 0.917683 0.416909
C C4 0.541036 0.082316 0.916909
C C5 0.543036 0.602683 0.563769
C C6 0.543036 0.397317 0.063768
C C7 0.734086 0.947693 0.492192
C C8 0.734087 0.052307 0.992192
C C9 0.737384 0.786761 0.567790
C C10 0.737384 0.213239 0.067790
N N1 0.361978 0.575492 0.492894
N N2 0.361978 0.424508 0.992894
loop_
_atom_site_aniso_label
_atom_site_aniso_B_11
_atom_site_aniso_B_22
_atom_site_aniso_B_33
_atom_site_aniso_B_23
_atom_site_aniso_B_13
_atom_site_aniso_B_12
# Additional Data for B_Aniso: 120.000000
Cl1 1.311743 1.786793 1.161340 -0.138679 -0.222432 -0.176858
Cl2 1.311743 1.786793 1.161340 0.138678 -0.222432 0.176858
Cl3 1.743301 1.585848 1.168584 0.426082 0.187686 -0.072914
Cl4 1.743301 1.585848 1.168584 -0.426082 0.187686 0.072914
Cl5 1.185722 1.197223 1.590129 -0.155131 0.345264 -0.334092
Cl6 1.185722 1.197222 1.590129 0.155131 0.345264 0.334092
Cl7 1.282570 1.931521 1.155733 -0.048182 -0.244356 -0.083313
Cl8 1.282570 1.931521 1.155733 0.048182 -0.244356 0.083313
Cl9 1.845452 1.468123 1.158360 0.351565 0.281443 -0.095569
Cl10 1.845452 1.468123 1.158360 -0.351566 0.281443 0.095569
C1 1.011399 1.141558 0.924759 -0.048461 0.064353 -0.103058
C2 1.011399 1.141558 0.924759 0.048461 0.064353 0.103058
C3 1.046196 1.067733 0.925727 0.045499 0.143914 -0.045445
C4 1.046196 1.067733 0.925727 -0.045499 0.143914 0.045445
C5 1.120259 1.066233 0.926183 0.036547 0.148684 -0.073734
C6 1.120259 1.066233 0.926183 -0.036548 0.148684 0.073733
C7 0.960166 1.001252 1.012739 -0.052734 0.158168 -0.098794
C8 0.960166 1.001252 1.012739 0.052734 0.158168 0.098794
C9 0.986283 1.096237 0.925492 -0.048742 0.058447 -0.036927
C10 0.986283 1.096237 0.925492 0.048742 0.058447 0.036927
N1 1.135087 1.176299 1.027947 0.015490 0.105012 -0.260471
N2 1.135087 1.176299 1.027947 -0.015490 0.105012 0.260471
#end of data_B.cif_120K

data_B.cif_130K

_audit_creation_method 'generated by Molecular-Toolbox 1.0.1' 
_chemical_formula_sum
'Cl10 C10 N2'

_cell_length_a 5.350524 
_cell_length_b 5.192441 
_cell_length_c 15.058446 
_cell_angle_alpha 89.999991 
_cell_angle_beta 99.578013
_cell_angle_gamma 89.999998

_symmetry_space_group_name_H-M  'P1'

 loop_
_atom_site_type_symbol 
_atom_site_label 
_atom_site_fract_x 
_atom_site_fract_y 
_atom_site_fract_z
Cl Cl1 0.114907 0.676724 0.332801
Cl Cl2 0.114907 0.323276 0.832801
Cl Cl3 0.532189 0.109277 0.324131
Cl Cl4 0.532189 0.890723 0.824131
Cl Cl5 0.961821 0.177153 0.492122
Cl Cl6 0.961822 0.822847 0.992122
Cl Cl7 0.968687 0.816203 0.659963
Cl Cl8 0.968687 0.183798 0.159963
Cl Cl9 0.531625 0.397008 0.653072
Cl Cl10 0.531625 0.602992 0.153072
C C1 0.358249 0.725623 0.421526
C C2 0.358250 0.274377 0.921526
C C3 0.541036 0.917683 0.416909
C C4 0.541036 0.082316 0.916909
C C5 0.543036 0.602683 0.563769
C C6 0.543036 0.397317 0.063768
C C7 0.734086 0.947693 0.492192
C C8 0.734087 0.052307 0.992192
C C9 0.737384 0.786761 0.567790
C C10 0.737384 0.213239 0.067790
N N1 0.361978 0.575492 0.492894
N N2 0.361978 0.424508 0.992894
loop_
_atom_site_aniso_label
_atom_site_aniso_B_11
_atom_site_aniso_B_22
_atom_site_aniso_B_33
_atom_site_aniso_B_23
_atom_site_aniso_B_13
_atom_site_aniso_B_12
# Additional Data for B_Aniso: 130.000000
Cl1 1.411548 1.924731 1.248868 -0.150184 -0.241079 -0.191016
Cl2 1.411548 1.924731 1.248868 0.150183 -0.241079 0.191016
Cl3 1.877710 1.707836 1.256938 0.460133 0.201913 -0.078709
Cl4 1.877710 1.707836 1.256939 -0.460134 0.201913 0.078709
Cl5 1.274952 1.287391 1.712092 -0.168272 0.372474 -0.360360
Cl6 1.274952 1.287391 1.712092 0.168272 0.372474 0.360360
Cl7 1.379875 2.081539 1.243031 -0.052277 -0.264750 -0.089763
Cl8 1.379875 2.081539 1.243031 0.052277 -0.264750 0.089763
Cl9 1.988384 1.580400 1.245658 0.379460 0.303345 -0.103178
Cl10 1.988384 1.580400 1.245659 -0.379460 0.303345 0.103178
C1 1.081568 1.221541 0.989286 -0.054690 0.069782 -0.108621
C2 1.081568 1.221541 0.989286 0.054690 0.069782 0.108621
C3 1.118950 1.141005 0.990150 0.046683 0.156332 -0.045480
C4 1.118950 1.141005 0.990150 -0.046684 0.156332 0.045480
C5 1.199438 1.139979 0.990843 0.037343 0.161051 -0.076792
C6 1.199438 1.139979 0.990843 -0.037343 0.161051 0.076792
C7 1.025966 1.069391 1.084584 -0.059597 0.171536 -0.103685
C8 1.025966 1.069391 1.084584 0.059596 0.171536 0.103685
C9 1.053941 1.171956 0.989862 -0.055457 0.063698 -0.036266
C10 1.053941 1.171956 0.989862 0.055456 0.063698 0.036266
N1 1.214385 1.257703 1.101623 0.013787 0.114612 -0.279132
N2 1.214385 1.257703 1.101624 -0.013788 0.114612 0.279131
#end of data_B.cif_130K

data_B.cif_140K

_audit_creation_method 'generated by Molecular-Toolbox 1.0.1' 
_chemical_formula_sum
'Cl10 C10 N2'

_cell_length_a 5.350524 
_cell_length_b 5.192441 
_cell_length_c 15.058446 
_cell_angle_alpha 89.999991 
_cell_angle_beta 99.578013
_cell_angle_gamma 89.999998

_symmetry_space_group_name_H-M  'P1'

 loop_
_atom_site_type_symbol 
_atom_site_label 
_atom_site_fract_x 
_atom_site_fract_y 
_atom_site_fract_z
Cl Cl1 0.114907 0.676724 0.332801
Cl Cl2 0.114907 0.323276 0.832801
Cl Cl3 0.532189 0.109277 0.324131
Cl Cl4 0.532189 0.890723 0.824131
Cl Cl5 0.961821 0.177153 0.492122
Cl Cl6 0.961822 0.822847 0.992122
Cl Cl7 0.968687 0.816203 0.659963
Cl Cl8 0.968687 0.183798 0.159963
Cl Cl9 0.531625 0.397008 0.653072
Cl Cl10 0.531625 0.602992 0.153072
C C1 0.358249 0.725623 0.421526
C C2 0.358250 0.274377 0.921526
C C3 0.541036 0.917683 0.416909
C C4 0.541036 0.082316 0.916909
C C5 0.543036 0.602683 0.563769
C C6 0.543036 0.397317 0.063768
C C7 0.734086 0.947693 0.492192
C C8 0.734087 0.052307 0.992192
C C9 0.737384 0.786761 0.567790
C C10 0.737384 0.213239 0.067790
N N1 0.361978 0.575492 0.492894
N N2 0.361978 0.424508 0.992894
loop_
_atom_site_aniso_label
_atom_site_aniso_B_11
_atom_site_aniso_B_22
_atom_site_aniso_B_33
_atom_site_aniso_B_23
_atom_site_aniso_B_13
_atom_site_aniso_B_12
# Additional Data for B_Aniso: 140.000000
Cl1 1.511852 2.063300 1.336871 -0.161689 -0.259802 -0.205253
Cl2 1.511852 2.063300 1.336871 0.161688 -0.259802 0.205253
Cl3 2.012718 1.830377 1.345688 0.494343 0.216126 -0.084556
Cl4 2.012718 1.830377 1.345688 -0.494344 0.216126 0.084556
Cl5 1.364735 1.378034 1.834608 -0.181413 0.399776 -0.386939
Cl6 1.364735 1.378034 1.834608 0.181412 0.399776 0.386939
Cl7 1.477649 2.232110 1.330724 -0.056372 -0.285313 -0.096291
Cl8 1.477649 2.232110 1.330724 0.056372 -0.285313 0.096291
Cl9 2.131841 1.693229 1.333431 0.407513 0.325247 -0.110839
Cl10 2.131840 1.693229 1.333431 -0.407513 0.325247 0.110839
C1 1.152128 1.301761 1.054050 -0.060762 0.075250 -0.114236
C2 1.152128 1.301761 1.054050 0.060761 0.075250 0.114236
C3 1.191991 1.214672 1.054809 0.048026 0.168711 -0.045643
C4 1.191991 1.214672 1.054809 -0.048027 0.168711 0.045643
C5 1.278979 1.214119 1.055661 0.038139 0.173367 -0.080084
C6 1.278979 1.214119 1.055661 -0.038139 0.173367 0.080083
C7 1.092133 1.138005 1.156746 -0.066301 0.184879 -0.108628
C8 1.092133 1.138005 1.156746 0.066300 0.184879 0.108627
C9 1.121964 1.248071 1.054548 -0.062092 0.068923 -0.035825
C10 1.121964 1.248071 1.054548 0.062092 0.068923 0.035825
N1 1.294205 1.339661 1.175695 0.012243 0.124199 -0.298077
N2 1.294205 1.339661 1.175695 -0.012243 0.124199 0.298077
#end of data_B.cif_140K

data_B.cif_150K

_audit_creation_method 'generated by Molecular-Toolbox 1.0.1' 
_chemical_formula_sum
'Cl10 C10 N2'

_cell_length_a 5.350524 
_cell_length_b 5.192441 
_cell_length_c 15.058446 
_cell_angle_alpha 89.999991 
_cell_angle_beta 99.578013
_cell_angle_gamma 89.999998

_symmetry_space_group_name_H-M  'P1'

 loop_
_atom_site_type_symbol 
_atom_site_label 
_atom_site_fract_x 
_atom_site_fract_y 
_atom_site_fract_z
Cl Cl1 0.114907 0.676724 0.332801
Cl Cl2 0.114907 0.323276 0.832801
Cl Cl3 0.532189 0.109277 0.324131
Cl Cl4 0.532189 0.890723 0.824131
Cl Cl5 0.961821 0.177153 0.492122
Cl Cl6 0.961822 0.822847 0.992122
Cl Cl7 0.968687 0.816203 0.659963
Cl Cl8 0.968687 0.183798 0.159963
Cl Cl9 0.531625 0.397008 0.653072
Cl Cl10 0.531625 0.602992 0.153072
C C1 0.358249 0.725623 0.421526
C C2 0.358250 0.274377 0.921526
C C3 0.541036 0.917683 0.416909
C C4 0.541036 0.082316 0.916909
C C5 0.543036 0.602683 0.563769
C C6 0.543036 0.397317 0.063768
C C7 0.734086 0.947693 0.492192
C C8 0.734087 0.052307 0.992192
C C9 0.737384 0.786761 0.567790
C C10 0.737384 0.213239 0.067790
N N1 0.361978 0.575492 0.492894
N N2 0.361978 0.424508 0.992894
loop_
_atom_site_aniso_label
_atom_site_aniso_B_11
_atom_site_aniso_B_22
_atom_site_aniso_B_33
_atom_site_aniso_B_23
_atom_site_aniso_B_13
_atom_site_aniso_B_12
# Additional Data for B_Aniso: 150.000000
Cl1 1.612496 2.202422 1.425190 -0.173194 -0.278628 -0.219567
Cl2 1.612496 2.202422 1.425190 0.173193 -0.278629 0.219567
Cl3 2.148274 1.953392 1.434832 0.528711 0.230405 -0.090454
Cl4 2.148274 1.953392 1.434832 -0.528712 0.230405 0.090454
Cl5 1.454890 1.469071 1.957676 -0.194474 0.427092 -0.413583
Cl6 1.454890 1.469071 1.957676 0.194473 0.427092 0.413583
Cl7 1.575869 2.383233 1.418813 -0.060467 -0.305887 -0.102897
Cl8 1.575869 2.383233 1.418813 0.060466 -0.305887 0.102897
Cl9 2.275920 1.806453 1.421520 0.435644 0.347201 -0.118565
Cl10 2.275920 1.806453 1.421520 -0.435645 0.347201 0.118564
C1 1.222949 1.382376 1.119052 -0.066832 0.080601 -0.120084
C2 1.222949 1.382376 1.119052 0.066832 0.080601 0.120084
C3 1.265370 1.288655 1.119706 0.049449 0.180974 -0.046027
C4 1.265370 1.288655 1.119706 -0.049449 0.180974 0.046027
C5 1.358757 1.288497 1.120715 0.039172 0.185722 -0.083413
C6 1.358757 1.288497 1.120715 -0.039172 0.185722 0.083413
C7 1.158585 1.206855 1.229066 -0.072847 0.198170 -0.113777
C8 1.158585 1.206855 1.229066 0.072846 0.198170 0.113777
C9 1.190324 1.324501 1.119393 -0.068569 0.074019 -0.035513
C10 1.190324 1.324501 1.119393 0.068569 0.074019 0.035513
N1 1.374335 1.422092 1.249926 0.010857 0.133579 -0.317229
N2 1.374335 1.422092 1.249926 -0.010857 0.133579 0.317229
#end of data_B.cif_150K

data_B.cif_160K

_audit_creation_method 'generated by Molecular-Toolbox 1.0.1' 
_chemical_formula_sum
'Cl10 C10 N2'

_cell_length_a 5.350524 
_cell_length_b 5.192441 
_cell_length_c 15.058446 
_cell_angle_alpha 89.999991 
_cell_angle_beta 99.578013
_cell_angle_gamma 89.999998

_symmetry_space_group_name_H-M  'P1'

 loop_
_atom_site_type_symbol 
_atom_site_label 
_atom_site_fract_x 
_atom_site_fract_y 
_atom_site_fract_z
Cl Cl1 0.114907 0.676724 0.332801
Cl Cl2 0.114907 0.323276 0.832801
Cl Cl3 0.532189 0.109277 0.324131
Cl Cl4 0.532189 0.890723 0.824131
Cl Cl5 0.961821 0.177153 0.492122
Cl Cl6 0.961822 0.822847 0.992122
Cl Cl7 0.968687 0.816203 0.659963
Cl Cl8 0.968687 0.183798 0.159963
Cl Cl9 0.531625 0.397008 0.653072
Cl Cl10 0.531625 0.602992 0.153072
C C1 0.358249 0.725623 0.421526
C C2 0.358250 0.274377 0.921526
C C3 0.541036 0.917683 0.416909
C C4 0.541036 0.082316 0.916909
C C5 0.543036 0.602683 0.563769
C C6 0.543036 0.397317 0.063768
C C7 0.734086 0.947693 0.492192
C C8 0.734087 0.052307 0.992192
C C9 0.737384 0.786761 0.567790
C C10 0.737384 0.213239 0.067790
N N1 0.361978 0.575492 0.492894
N N2 0.361978 0.424508 0.992894
loop_
_atom_site_aniso_label
_atom_site_aniso_B_11
_atom_site_aniso_B_22
_atom_site_aniso_B_33
_atom_site_aniso_B_23
_atom_site_aniso_B_13
_atom_site_aniso_B_12
# Additional Data for B_Aniso: 160.000000
Cl1 1.713483 2.341939 1.513905 -0.184698 -0.297545 -0.233881
Cl2 1.713483 2.341939 1.513905 0.184698 -0.297545 0.233881
Cl3 2.284300 2.076802 1.524292 0.563237 0.244737 -0.096325
Cl4 2.284300 2.076802 1.524292 -0.563237 0.244737 0.096325
Cl5 1.545467 1.560503 2.081139 -0.207614 0.454552 -0.440318
Cl6 1.545467 1.560503 2.081139 0.207614 0.454552 0.440317
Cl7 1.674427 2.534830 1.507139 -0.064562 -0.326578 -0.109503
Cl8 1.674427 2.534830 1.507139 0.064561 -0.326579 0.109503
Cl9 2.420391 1.920151 1.509924 0.464013 0.369207 -0.126250
Cl10 2.420391 1.920151 1.509924 -0.464013 0.369207 0.126250
C1 1.293979 1.463307 1.184212 -0.072824 0.085901 -0.125919
C2 1.293979 1.463307 1.184212 0.072824 0.085901 0.125919
C3 1.338958 1.362953 1.184761 0.050950 0.193185 -0.046475
C4 1.338958 1.362953 1.184761 -0.050951 0.193185 0.046475
C5 1.438720 1.363190 1.186007 0.040205 0.197961 -0.086821
C6 1.438720 1.363190 1.186007 -0.040205 0.197961 0.086821
C7 1.225248 1.276021 1.301623 -0.079392 0.211422 -0.119005
C8 1.225248 1.276021 1.301623 0.079392 0.211422 0.119004
C9 1.258892 1.401247 1.184396 -0.074888 0.079064 -0.035330
C10 1.258892 1.401247 1.184396 0.074887 0.079064 0.035330
N1 1.454831 1.504838 1.324472 0.009629 0.142934 -0.336588
N2 1.454831 1.504838 1.324472 -0.009629 0.142933 0.336588
#end of data_B.cif_160K

data_B.cif_170K

_audit_creation_method 'generated by Molecular-Toolbox 1.0.1' 
_chemical_formula_sum
'Cl10 C10 N2'

_cell_length_a 5.350524 
_cell_length_b 5.192441 
_cell_length_c 15.058446 
_cell_angle_alpha 89.999991 
_cell_angle_beta 99.578013
_cell_angle_gamma 89.999998

_symmetry_space_group_name_H-M  'P1'

 loop_
_atom_site_type_symbol 
_atom_site_label 
_atom_site_fract_x 
_atom_site_fract_y 
_atom_site_fract_z
Cl Cl1 0.114907 0.676724 0.332801
Cl Cl2 0.114907 0.323276 0.832801
Cl Cl3 0.532189 0.109277 0.324131
Cl Cl4 0.532189 0.890723 0.824131
Cl Cl5 0.961821 0.177153 0.492122
Cl Cl6 0.961822 0.822847 0.992122
Cl Cl7 0.968687 0.816203 0.659963
Cl Cl8 0.968687 0.183798 0.159963
Cl Cl9 0.531625 0.397008 0.653072
Cl Cl10 0.531625 0.602992 0.153072
C C1 0.358249 0.725623 0.421526
C C2 0.358250 0.274377 0.921526
C C3 0.541036 0.917683 0.416909
C C4 0.541036 0.082316 0.916909
C C5 0.543036 0.602683 0.563769
C C6 0.543036 0.397317 0.063768
C C7 0.734086 0.947693 0.492192
C C8 0.734087 0.052307 0.992192
C C9 0.737384 0.786761 0.567790
C C10 0.737384 0.213239 0.067790
N N1 0.361978 0.575492 0.492894
N N2 0.361978 0.424508 0.992894
loop_
_atom_site_aniso_label
_atom_site_aniso_B_11
_atom_site_aniso_B_22
_atom_site_aniso_B_33
_atom_site_aniso_B_23
_atom_site_aniso_B_13
_atom_site_aniso_B_12
# Additional Data for B_Aniso: 170.000000
Cl1 1.814754 2.481929 1.602777 -0.196203 -0.316513 -0.248273
Cl2 1.814754 2.481929 1.602777 0.196202 -0.316513 0.248273
Cl3 2.420637 2.200527 1.613910 0.597841 0.259094 -0.102184
Cl4 2.420637 2.200527 1.613910 -0.597842 0.259094 0.102183
Cl5 1.636256 1.652172 2.204918 -0.220675 0.481986 -0.467195
Cl6 1.636256 1.652172 2.204918 0.220675 0.481986 0.467195
Cl7 1.773275 2.686822 1.595781 -0.068577 -0.347295 -0.116173
Cl8 1.773275 2.686822 1.595781 0.068577 -0.347295 0.116173
Cl9 2.565203 2.034086 1.598565 0.492381 0.391331 -0.134013
Cl10 2.565203 2.034086 1.598565 -0.492382 0.391331 0.134013
C1 1.365217 1.544396 1.249530 -0.078737 0.091149 -0.131896
C2 1.365217 1.544396 1.249530 0.078736 0.091149 0.131896
C3 1.412754 1.437567 1.249975 0.052531 0.205344 -0.047065
C4 1.412754 1.437567 1.249975 -0.052531 0.205344 0.047065
C5 1.518991 1.438120 1.251379 0.041317 0.210213 -0.090371
C6 1.518991 1.438120 1.251379 -0.041317 0.210213 0.090371
C7 1.292117 1.345424 1.374259 -0.085859 0.224609 -0.124374
C8 1.292117 1.345424 1.374259 0.085858 0.224609 0.124374
C9 1.327671 1.478309 1.249636 -0.081207 0.084069 -0.035225
C10 1.327671 1.478309 1.249636 0.081206 0.084069 0.035225
N1 1.535662 1.588059 1.399177 0.008559 0.152158 -0.356077
N2 1.535662 1.588059 1.399177 -0.008560 0.152158 0.356076
#end of data_B.cif_170K

data_B.cif_180K

_audit_creation_method 'generated by Molecular-Toolbox 1.0.1' 
_chemical_formula_sum
'Cl10 C10 N2'

_cell_length_a 5.350524 
_cell_length_b 5.192441 
_cell_length_c 15.058446 
_cell_angle_alpha 89.999991 
_cell_angle_beta 99.578013
_cell_angle_gamma 89.999998

_symmetry_space_group_name_H-M  'P1'

 loop_
_atom_site_type_symbol 
_atom_site_label 
_atom_site_fract_x 
_atom_site_fract_y 
_atom_site_fract_z
Cl Cl1 0.114907 0.676724 0.332801
Cl Cl2 0.114907 0.323276 0.832801
Cl Cl3 0.532189 0.109277 0.324131
Cl Cl4 0.532189 0.890723 0.824131
Cl Cl5 0.961821 0.177153 0.492122
Cl Cl6 0.961822 0.822847 0.992122
Cl Cl7 0.968687 0.816203 0.659963
Cl Cl8 0.968687 0.183798 0.159963
Cl Cl9 0.531625 0.397008 0.653072
Cl Cl10 0.531625 0.602992 0.153072
C C1 0.358249 0.725623 0.421526
C C2 0.358250 0.274377 0.921526
C C3 0.541036 0.917683 0.416909
C C4 0.541036 0.082316 0.916909
C C5 0.543036 0.602683 0.563769
C C6 0.543036 0.397317 0.063768
C C7 0.734086 0.947693 0.492192
C C8 0.734087 0.052307 0.992192
C C9 0.737384 0.786761 0.567790
C C10 0.737384 0.213239 0.067790
N N1 0.361978 0.575492 0.492894
N N2 0.361978 0.424508 0.992894
loop_
_atom_site_aniso_label
_atom_site_aniso_B_11
_atom_site_aniso_B_22
_atom_site_aniso_B_33
_atom_site_aniso_B_23
_atom_site_aniso_B_13
_atom_site_aniso_B_12
# Additional Data for B_Aniso: 180.000000
Cl1 1.916265 2.622157 1.691966 -0.207707 -0.335429 -0.262743
Cl2 1.916265 2.622156 1.691966 0.207707 -0.335429 0.262743
Cl3 2.557289 2.324568 1.703844 0.632446 0.273504 -0.108119
Cl4 2.557289 2.324568 1.703844 -0.632447 0.273504 0.108119
Cl5 1.727283 1.744157 2.328934 -0.233657 0.509460 -0.494137
Cl6 1.727283 1.744156 2.328934 0.233657 0.509460 0.494136
Cl7 1.872331 2.839130 1.684582 -0.072672 -0.368063 -0.122857
Cl8 1.872331 2.839130 1.684582 0.072671 -0.368063 0.122857
Cl9 2.710381 2.148336 1.687522 0.520829 0.413429 -0.141841
Cl10 2.710381 2.148337 1.687522 -0.520830 0.413429 0.141841
C1 1.436661 1.625800 1.314928 -0.084570 0.096332 -0.137938
C2 1.436661 1.625800 1.314928 0.084570 0.096332 0.137938
C3 1.486835 1.512339 1.315347 0.054270 0.217452 -0.047785
C4 1.486835 1.512339 1.315347 -0.054270 0.217452 0.047785
C5 1.599397 1.513208 1.316987 0.042508 0.222427 -0.093986
C6 1.599397 1.513208 1.316987 -0.042509 0.222427 0.093985
C7 1.359195 1.415064 1.447053 -0.092167 0.237745 -0.129795
C8 1.359195 1.415064 1.447053 0.092167 0.237745 0.129795
C9 1.396733 1.555529 1.314955 -0.087446 0.089010 -0.035262
C10 1.396733 1.555529 1.314955 0.087446 0.089010 0.035262
N1 1.616705 1.671516 1.474119 0.007490 0.161345 -0.375721
N2 1.616705 1.671516 1.474119 -0.007491 0.161345 0.375720
#end of data_B.cif_180K

data_B.cif_190K

_audit_creation_method 'generated by Molecular-Toolbox 1.0.1' 
_chemical_formula_sum
'Cl10 C10 N2'

_cell_length_a 5.350524 
_cell_length_b 5.192441 
_cell_length_c 15.058446 
_cell_angle_alpha 89.999991 
_cell_angle_beta 99.578013
_cell_angle_gamma 89.999998

_symmetry_space_group_name_H-M  'P1'

 loop_
_atom_site_type_symbol 
_atom_site_label 
_atom_site_fract_x 
_atom_site_fract_y 
_atom_site_fract_z
Cl Cl1 0.114907 0.676724 0.332801
Cl Cl2 0.114907 0.323276 0.832801
Cl Cl3 0.532189 0.109277 0.324131
Cl Cl4 0.532189 0.890723 0.824131
Cl Cl5 0.961821 0.177153 0.492122
Cl Cl6 0.961822 0.822847 0.992122
Cl Cl7 0.968687 0.816203 0.659963
Cl Cl8 0.968687 0.183798 0.159963
Cl Cl9 0.531625 0.397008 0.653072
Cl Cl10 0.531625 0.602992 0.153072
C C1 0.358249 0.725623 0.421526
C C2 0.358250 0.274377 0.921526
C C3 0.541036 0.917683 0.416909
C C4 0.541036 0.082316 0.916909
C C5 0.543036 0.602683 0.563769
C C6 0.543036 0.397317 0.063768
C C7 0.734086 0.947693 0.492192
C C8 0.734087 0.052307 0.992192
C C9 0.737384 0.786761 0.567790
C C10 0.737384 0.213239 0.067790
N N1 0.361978 0.575492 0.492894
N N2 0.361978 0.424508 0.992894
loop_
_atom_site_aniso_label
_atom_site_aniso_B_11
_atom_site_aniso_B_22
_atom_site_aniso_B_33
_atom_site_aniso_B_23
_atom_site_aniso_B_13
_atom_site_aniso_B_12
# Additional Data for B_Aniso: 190.000000
Cl1 2.018061 2.762700 1.781313 -0.219212 -0.354396 -0.277135
Cl2 2.018061 2.762700 1.781313 0.219211 -0.354396 0.277135
Cl3 2.694253 2.448767 1.793935 0.667130 0.287940 -0.114120
Cl4 2.694253 2.448767 1.793936 -0.667131 0.287940 0.114120
Cl5 1.818522 1.836299 2.453266 -0.246718 0.536909 -0.521092
Cl6 1.818522 1.836299 2.453266 0.246717 0.536909 0.521092
Cl7 1.971624 2.991675 1.773619 -0.076688 -0.388792 -0.129527
Cl8 1.971624 2.991674 1.773619 0.076687 -0.388792 0.129527
Cl9 2.855819 2.262745 1.776637 0.549356 0.435631 -0.149578
Cl10 2.855819 2.262745 1.776637 -0.549357 0.435631 0.149578
C1 1.508188 1.707363 1.380562 -0.090403 0.101555 -0.144058
C2 1.508188 1.707363 1.380562 0.090403 0.101555 0.144057
C3 1.561048 1.587348 1.380876 0.056009 0.229508 -0.048583
C4 1.561048 1.587348 1.380876 -0.056009 0.229508 0.048582
C5 1.680008 1.588533 1.382674 0.043779 0.234575 -0.097665
C6 1.680008 1.588533 1.382674 -0.043779 0.234575 0.097665
C7 1.426430 1.484862 1.520006 -0.098476 0.250907 -0.135372
C8 1.426430 1.484862 1.520006 0.098475 0.250907 0.135372
C9 1.465926 1.632985 1.380432 -0.093527 0.093900 -0.035429
C10 1.465926 1.632985 1.380432 0.093527 0.093899 0.035428
N1 1.698030 1.755210 1.549141 0.006579 0.170466 -0.395416
N2 1.698030 1.755210 1.549141 -0.006579 0.170466 0.395415
#end of data_B.cif_190K

data_B.cif_200K

_audit_creation_method 'generated by Molecular-Toolbox 1.0.1' 
_chemical_formula_sum
'Cl10 C10 N2'

_cell_length_a 5.350524 
_cell_length_b 5.192441 
_cell_length_c 15.058446 
_cell_angle_alpha 89.999991 
_cell_angle_beta 99.578013
_cell_angle_gamma 89.999998

_symmetry_space_group_name_H-M  'P1'

 loop_
_atom_site_type_symbol 
_atom_site_label 
_atom_site_fract_x 
_atom_site_fract_y 
_atom_site_fract_z
Cl Cl1 0.114907 0.676724 0.332801
Cl Cl2 0.114907 0.323276 0.832801
Cl Cl3 0.532189 0.109277 0.324131
Cl Cl4 0.532189 0.890723 0.824131
Cl Cl5 0.961821 0.177153 0.492122
Cl Cl6 0.961822 0.822847 0.992122
Cl Cl7 0.968687 0.816203 0.659963
Cl Cl8 0.968687 0.183798 0.159963
Cl Cl9 0.531625 0.397008 0.653072
Cl Cl10 0.531625 0.602992 0.153072
C C1 0.358249 0.725623 0.421526
C C2 0.358250 0.274377 0.921526
C C3 0.541036 0.917683 0.416909
C C4 0.541036 0.082316 0.916909
C C5 0.543036 0.602683 0.563769
C C6 0.543036 0.397317 0.063768
C C7 0.734086 0.947693 0.492192
C C8 0.734087 0.052307 0.992192
C C9 0.737384 0.786761 0.567790
C C10 0.737384 0.213239 0.067790
N N1 0.361978 0.575492 0.492894
N N2 0.361978 0.424508 0.992894
loop_
_atom_site_aniso_label
_atom_site_aniso_B_11
_atom_site_aniso_B_22
_atom_site_aniso_B_33
_atom_site_aniso_B_23
_atom_site_aniso_B_13
_atom_site_aniso_B_12
# Additional Data for B_Aniso: 200.000000
Cl1 2.119991 2.903401 1.870897 -0.230716 -0.373402 -0.291605
Cl2 2.119991 2.903401 1.870897 0.230715 -0.373402 0.291605
Cl3 2.831375 2.573203 1.884185 0.701893 0.302402 -0.120029
Cl4 2.831375 2.573203 1.884185 -0.701894 0.302402 0.120029
Cl5 1.909948 1.928600 2.577835 -0.259779 0.564476 -0.548125
Cl6 1.909948 1.928600 2.577834 0.259778 0.564476 0.548124
Cl7 2.071125 3.144456 1.862815 -0.080782 -0.409572 -0.136289
Cl8 2.071125 3.144456 1.862815 0.080781 -0.409572 0.136289
Cl9 3.001467 2.377469 1.865910 0.577883 0.457781 -0.157393
Cl10 3.001467 2.377469 1.865910 -0.577883 0.457781 0.157392
C1 1.579922 1.789083 1.446275 -0.096157 0.106713 -0.150320
C2 1.579922 1.789083 1.446275 0.096157 0.106713 0.150320
C3 1.635468 1.662594 1.446486 0.057827 0.241499 -0.049522
C4 1.635467 1.662594 1.446486 -0.057828 0.241499 0.049522
C5 1.760776 1.664015 1.448441 0.045050 0.246737 -0.101422
C6 1.760776 1.664015 1.448441 -0.045050 0.246737 0.101422
C7 1.493769 1.554897 1.593038 -0.104784 0.263926 -0.141026
C8 1.493769 1.554897 1.593038 0.104783 0.263926 0.141026
C9 1.535328 1.710679 1.446068 -0.099609 0.098737 -0.035673
C10 1.535328 1.710679 1.446068 0.099608 0.098737 0.035673
N1 1.779489 1.839221 1.624399 0.005747 0.179549 -0.415253
N2 1.779489 1.839220 1.624399 -0.005747 0.179549 0.415253
#end of data_B.cif_200K

data_B.cif_210K

_audit_creation_method 'generated by Molecular-Toolbox 1.0.1' 
_chemical_formula_sum
'Cl10 C10 N2'

_cell_length_a 5.350524 
_cell_length_b 5.192441 
_cell_length_c 15.058446 
_cell_angle_alpha 89.999991 
_cell_angle_beta 99.578013
_cell_angle_gamma 89.999998

_symmetry_space_group_name_H-M  'P1'

 loop_
_atom_site_type_symbol 
_atom_site_label 
_atom_site_fract_x 
_atom_site_fract_y 
_atom_site_fract_z
Cl Cl1 0.114907 0.676724 0.332801
Cl Cl2 0.114907 0.323276 0.832801
Cl Cl3 0.532189 0.109277 0.324131
Cl Cl4 0.532189 0.890723 0.824131
Cl Cl5 0.961821 0.177153 0.492122
Cl Cl6 0.961822 0.822847 0.992122
Cl Cl7 0.968687 0.816203 0.659963
Cl Cl8 0.968687 0.183798 0.159963
Cl Cl9 0.531625 0.397008 0.653072
Cl Cl10 0.531625 0.602992 0.153072
C C1 0.358249 0.725623 0.421526
C C2 0.358250 0.274377 0.921526
C C3 0.541036 0.917683 0.416909
C C4 0.541036 0.082316 0.916909
C C5 0.543036 0.602683 0.563769
C C6 0.543036 0.397317 0.063768
C C7 0.734086 0.947693 0.492192
C C8 0.734087 0.052307 0.992192
C C9 0.737384 0.786761 0.567790
C C10 0.737384 0.213239 0.067790
N N1 0.361978 0.575492 0.492894
N N2 0.361978 0.424508 0.992894
loop_
_atom_site_aniso_label
_atom_site_aniso_B_11
_atom_site_aniso_B_22
_atom_site_aniso_B_33
_atom_site_aniso_B_23
_atom_site_aniso_B_13
_atom_site_aniso_B_12
# Additional Data for B_Aniso: 210.000000
Cl1 2.222076 3.044339 1.960560 -0.242221 -0.392394 -0.306075
Cl2 2.222076 3.044339 1.960559 0.242220 -0.392394 0.306075
Cl3 2.968732 2.697876 1.974592 0.736656 0.316890 -0.126016
Cl4 2.968732 2.697876 1.974593 -0.736657 0.316890 0.126016
Cl5 2.001531 2.021137 2.702561 -0.272760 0.592068 -0.575222
Cl6 2.001531 2.021137 2.702561 0.272760 0.592068 0.575222
Cl7 2.170758 3.297474 1.952168 -0.084798 -0.430404 -0.142959
Cl8 2.170758 3.297474 1.952168 0.084797 -0.430404 0.142959
Cl9 3.147298 2.492272 1.955340 0.606488 0.480036 -0.165194
Cl10 3.147298 2.492273 1.955340 -0.606489 0.480036 0.165194
C1 1.651786 1.870961 1.512068 -0.101911 0.111806 -0.156582
C2 1.651786 1.870961 1.512068 0.101911 0.111806 0.156582
C3 1.709940 1.737998 1.512174 0.059724 0.253425 -0.050527
C4 1.709939 1.737998 1.512174 -0.059725 0.253425 0.050527
C5 1.841701 1.739735 1.514365 0.046399 0.258924 -0.105243
C6 1.841701 1.739735 1.514365 -0.046400 0.258924 0.105243
C7 1.561342 1.625090 1.666227 -0.110934 0.276972 -0.146732
C8 1.561342 1.625090 1.666227 0.110933 0.276972 0.146732
C9 1.604809 1.788530 1.511783 -0.105611 0.103588 -0.035982
C10 1.604809 1.788530 1.511783 0.105689 0.103588 0.035995
N1 1.861232 1.923467 1.699737 0.004994 0.188567 -0.435155
N2 1.861232 1.923467 1.699737 -0.004995 0.188567 0.435155
#end of data_B.cif_210K

data_B.cif_220K

_audit_creation_method 'generated by Molecular-Toolbox 1.0.1' 
_chemical_formula_sum
'Cl10 C10 N2'

_cell_length_a 5.350524 
_cell_length_b 5.192441 
_cell_length_c 15.058446 
_cell_angle_alpha 89.999991 
_cell_angle_beta 99.578013
_cell_angle_gamma 89.999998

_symmetry_space_group_name_H-M  'P1'

 loop_
_atom_site_type_symbol 
_atom_site_label 
_atom_site_fract_x 
_atom_site_fract_y 
_atom_site_fract_z
Cl Cl1 0.114907 0.676724 0.332801
Cl Cl2 0.114907 0.323276 0.832801
Cl Cl3 0.532189 0.109277 0.324131
Cl Cl4 0.532189 0.890723 0.824131
Cl Cl5 0.961821 0.177153 0.492122
Cl Cl6 0.961822 0.822847 0.992122
Cl Cl7 0.968687 0.816203 0.659963
Cl Cl8 0.968687 0.183798 0.159963
Cl Cl9 0.531625 0.397008 0.653072
Cl Cl10 0.531625 0.602992 0.153072
C C1 0.358249 0.725623 0.421526
C C2 0.358250 0.274377 0.921526
C C3 0.541036 0.917683 0.416909
C C4 0.541036 0.082316 0.916909
C C5 0.543036 0.602683 0.563769
C C6 0.543036 0.397317 0.063768
C C7 0.734086 0.947693 0.492192
C C8 0.734087 0.052307 0.992192
C C9 0.737384 0.786761 0.567790
C C10 0.737384 0.213239 0.067790
N N1 0.361978 0.575492 0.492894
N N2 0.361978 0.424508 0.992894
loop_
_atom_site_aniso_label
_atom_site_aniso_B_11
_atom_site_aniso_B_22
_atom_site_aniso_B_33
_atom_site_aniso_B_23
_atom_site_aniso_B_13
_atom_site_aniso_B_12
# Additional Data for B_Aniso: 220.000000
Cl1 2.324293 3.185514 2.050381 -0.253725 -0.411439 -0.320545
Cl2 2.324293 3.185513 2.050381 0.253724 -0.411439 0.320544
Cl3 3.106246 2.822628 2.065158 0.771498 0.331405 -0.131990
Cl4 3.106246 2.822628 2.065158 -0.771499 0.331405 0.131990
Cl5 2.093249 2.113832 2.827525 -0.285821 0.619623 -0.602333
Cl6 2.093249 2.113832 2.827525 0.285820 0.619623 0.602333
Cl7 2.270547 3.450651 2.041601 -0.088813 -0.451223 -0.149707
Cl8 2.270547 3.450651 2.041601 0.088812 -0.451223 0.149707
Cl9 3.293337 2.607313 2.044929 0.635094 0.502238 -0.173073
Cl10 3.293337 2.607313 2.044929 -0.635095 0.502238 0.173073
C1 1.723778 1.952997 1.577940 -0.107586 0.116835 -0.162831
C2 1.723778 1.952997 1.577940 0.107586 0.116835 0.162830
C3 1.784646 1.813639 1.578020 0.061622 0.265378 -0.051609
C4 1.784646 1.813639 1.578020 -0.061623 0.265378 0.051609
C5 1.922832 1.815455 1.580369 0.047828 0.271047 -0.109051
C6 1.922832 1.815455 1.580369 -0.047829 0.271047 0.109051
C7 1.628994 1.695361 1.739496 -0.117083 0.290030 -0.152438
C8 1.628994 1.695361 1.739496 0.117083 0.290030 0.152438
C9 1.674498 1.866540 1.577656 -0.111612 0.108387 -0.036368
C10 1.674498 1.866540 1.577656 0.111612 0.108387 0.036368
N1 1.943103 2.007872 1.775154 0.004241 0.197520 -0.455135
N2 1.943103 2.007872 1.775154 -0.004242 0.197520 0.455135
#end of data_B.cif_220K

data_B.cif_230K

_audit_creation_method 'generated by Molecular-Toolbox 1.0.1' 
_chemical_formula_sum
'Cl10 C10 N2'

_cell_length_a 5.350524 
_cell_length_b 5.192441 
_cell_length_c 15.058446 
_cell_angle_alpha 89.999991 
_cell_angle_beta 99.578013
_cell_angle_gamma 89.999998

_symmetry_space_group_name_H-M  'P1'

 loop_
_atom_site_type_symbol 
_atom_site_label 
_atom_site_fract_x 
_atom_site_fract_y 
_atom_site_fract_z
Cl Cl1 0.114907 0.676724 0.332801
Cl Cl2 0.114907 0.323276 0.832801
Cl Cl3 0.532189 0.109277 0.324131
Cl Cl4 0.532189 0.890723 0.824131
Cl Cl5 0.961821 0.177153 0.492122
Cl Cl6 0.961822 0.822847 0.992122
Cl Cl7 0.968687 0.816203 0.659963
Cl Cl8 0.968687 0.183798 0.159963
Cl Cl9 0.531625 0.397008 0.653072
Cl Cl10 0.531625 0.602992 0.153072
C C1 0.358249 0.725623 0.421526
C C2 0.358250 0.274377 0.921526
C C3 0.541036 0.917683 0.416909
C C4 0.541036 0.082316 0.916909
C C5 0.543036 0.602683 0.563769
C C6 0.543036 0.397317 0.063768
C C7 0.734086 0.947693 0.492192
C C8 0.734087 0.052307 0.992192
C C9 0.737384 0.786761 0.567790
C C10 0.737384 0.213239 0.067790
N N1 0.361978 0.575492 0.492894
N N2 0.361978 0.424508 0.992894
loop_
_atom_site_aniso_label
_atom_site_aniso_B_11
_atom_site_aniso_B_22
_atom_site_aniso_B_33
_atom_site_aniso_B_23
_atom_site_aniso_B_13
_atom_site_aniso_B_12
# Additional Data for B_Aniso: 230.000000
Cl1 2.426669 3.326767 2.140360 -0.265229 -0.430456 -0.335092
Cl2 2.426669 3.326767 2.140360 0.265228 -0.430457 0.335092
Cl3 3.243993 2.947538 2.155802 0.806339 0.345932 -0.137886
Cl4 3.243993 2.947538 2.155802 -0.806340 0.345932 0.137886
Cl5 2.185148 2.206607 2.952567 -0.298803 0.647268 -0.629430
Cl6 2.185148 2.206607 2.952567 0.298802 0.647268 0.629430
Cl7 2.370493 3.603985 2.131192 -0.092829 -0.472016 -0.156456
Cl8 2.370493 3.603985 2.131191 0.092828 -0.472016 0.156455
Cl9 3.439559 2.722432 2.134596 0.663779 0.524532 -0.180861
Cl10 3.439559 2.722432 2.134597 -0.663780 0.524532 0.180861
C1 1.795955 2.035270 1.643970 -0.113182 0.121967 -0.169222
C2 1.795955 2.035270 1.643970 0.113182 0.121967 0.169221
C3 1.859485 1.889358 1.644025 0.063599 0.277279 -0.052678
C4 1.859485 1.889358 1.644025 -0.063599 0.277279 0.052678
C5 2.003940 1.891411 1.646452 0.049257 0.283106 -0.113015
C6 2.003940 1.891411 1.646452 -0.049258 0.283106 0.113015
C7 1.696776 1.765791 1.812844 -0.123233 0.303024 -0.158299
C8 1.696776 1.765791 1.812844 0.123233 0.303024 0.158299
C9 1.744315 1.944707 1.643529 -0.117535 0.113108 -0.036820
C10 1.744315 1.944707 1.643529 0.117535 0.113108 0.036819
N1 2.025133 2.092514 1.850729 0.003568 0.206499 -0.475180
N2 2.025133 2.092514 1.850729 -0.003568 0.206499 0.475180
#end of data_B.cif_230K

data_B.cif_240K

_audit_creation_method 'generated by Molecular-Toolbox 1.0.1' 
_chemical_formula_sum
'Cl10 C10 N2'

_cell_length_a 5.350524 
_cell_length_b 5.192441 
_cell_length_c 15.058446 
_cell_angle_alpha 89.999991 
_cell_angle_beta 99.578013
_cell_angle_gamma 89.999998

_symmetry_space_group_name_H-M  'P1'

 loop_
_atom_site_type_symbol 
_atom_site_label 
_atom_site_fract_x 
_atom_site_fract_y 
_atom_site_fract_z
Cl Cl1 0.114907 0.676724 0.332801
Cl Cl2 0.114907 0.323276 0.832801
Cl Cl3 0.532189 0.109277 0.324131
Cl Cl4 0.532189 0.890723 0.824131
Cl Cl5 0.961821 0.177153 0.492122
Cl Cl6 0.961822 0.822847 0.992122
Cl Cl7 0.968687 0.816203 0.659963
Cl Cl8 0.968687 0.183798 0.159963
Cl Cl9 0.531625 0.397008 0.653072
Cl Cl10 0.531625 0.602992 0.153072
C C1 0.358249 0.725623 0.421526
C C2 0.358250 0.274377 0.921526
C C3 0.541036 0.917683 0.416909
C C4 0.541036 0.082316 0.916909
C C5 0.543036 0.602683 0.563769
C C6 0.543036 0.397317 0.063768
C C7 0.734086 0.947693 0.492192
C C8 0.734087 0.052307 0.992192
C C9 0.737384 0.786761 0.567790
C C10 0.737384 0.213239 0.067790
N N1 0.361978 0.575492 0.492894
N N2 0.361978 0.424508 0.992894
loop_
_atom_site_aniso_label
_atom_site_aniso_B_11
_atom_site_aniso_B_22
_atom_site_aniso_B_33
_atom_site_aniso_B_23
_atom_site_aniso_B_13
_atom_site_aniso_B_12
# Additional Data for B_Aniso: 240.000000
Cl1 2.529123 3.468179 2.230418 -0.276734 -0.449461 -0.349562
Cl2 2.529123 3.468179 2.230418 0.276733 -0.449461 0.349562
Cl3 3.381821 3.072605 2.246604 0.841181 0.360486 -0.143860
Cl4 3.381821 3.072605 2.246605 -0.841182 0.360486 0.143860
Cl5 2.277126 2.299460 3.077688 -0.311863 0.674926 -0.656619
Cl6 2.277126 2.299460 3.077688 0.311862 0.674926 0.656619
Cl7 2.470521 3.757398 2.220940 -0.096923 -0.492782 -0.163217
Cl8 2.470521 3.757398 2.220940 0.096922 -0.492782 0.163217
Cl9 3.585836 2.837709 2.224422 0.692464 0.546774 -0.188650
Cl10 3.585836 2.837709 2.224422 -0.692465 0.546774 0.188649
C1 1.868159 2.117543 1.710079 -0.118857 0.126957 -0.175626
C2 1.868159 2.117543 1.710079 0.118856 0.126957 0.175626
C3 1.934400 1.965236 1.710029 0.065654 0.289179 -0.053889
C4 1.934400 1.965236 1.710029 -0.065655 0.289179 0.053889
C5 2.085280 1.967446 1.712613 0.050765 0.295177 -0.116966
C6 2.085280 1.967446 1.712614 -0.050766 0.295177 0.116966
C7 1.764687 1.836378 1.886271 -0.129304 0.315953 -0.164148
C8 1.764687 1.836378 1.886271 0.129303 0.315953 0.164147
C9 1.814212 2.022953 1.709560 -0.123379 0.117855 -0.037335
C10 1.814212 2.022953 1.709560 0.123378 0.117855 0.037335
N1 2.107369 2.177235 1.926384 0.002973 0.215413 -0.495211
N2 2.107369 2.177235 1.926384 -0.002974 0.215413 0.495211
#end of data_B.cif_240K

data_B.cif_250K

_audit_creation_method 'generated by Molecular-Toolbox 1.0.1' 
_chemical_formula_sum
'Cl10 C10 N2'

_cell_length_a 5.350524 
_cell_length_b 5.192441 
_cell_length_c 15.058446 
_cell_angle_alpha 89.999991 
_cell_angle_beta 99.578013
_cell_angle_gamma 89.999998

_symmetry_space_group_name_H-M  'P1'

 loop_
_atom_site_type_symbol 
_atom_site_label 
_atom_site_fract_x 
_atom_site_fract_y 
_atom_site_fract_z
Cl Cl1 0.114907 0.676724 0.332801
Cl Cl2 0.114907 0.323276 0.832801
Cl Cl3 0.532189 0.109277 0.324131
Cl Cl4 0.532189 0.890723 0.824131
Cl Cl5 0.961821 0.177153 0.492122
Cl Cl6 0.961822 0.822847 0.992122
Cl Cl7 0.968687 0.816203 0.659963
Cl Cl8 0.968687 0.183798 0.159963
Cl Cl9 0.531625 0.397008 0.653072
Cl Cl10 0.531625 0.602992 0.153072
C C1 0.358249 0.725623 0.421526
C C2 0.358250 0.274377 0.921526
C C3 0.541036 0.917683 0.416909
C C4 0.541036 0.082316 0.916909
C C5 0.543036 0.602683 0.563769
C C6 0.543036 0.397317 0.063768
C C7 0.734086 0.947693 0.492192
C C8 0.734087 0.052307 0.992192
C C9 0.737384 0.786761 0.567790
C C10 0.737384 0.213239 0.067790
N N1 0.361978 0.575492 0.492894
N N2 0.361978 0.424508 0.992894
loop_
_atom_site_aniso_label
_atom_site_aniso_B_11
_atom_site_aniso_B_22
_atom_site_aniso_B_33
_atom_site_aniso_B_23
_atom_site_aniso_B_13
_atom_site_aniso_B_12
# Additional Data for B_Aniso: 250.000000
Cl1 2.631733 3.609749 2.320555 -0.288238 -0.468453 -0.364110
Cl2 2.631733 3.609749 2.320554 0.288237 -0.468453 0.364110
Cl3 3.519728 3.197752 2.337485 0.876023 0.375053 -0.149912
Cl4 3.519728 3.197752 2.337486 -0.876024 0.375053 0.149912
Cl5 2.369239 2.392471 3.203047 -0.324844 0.702546 -0.683794
Cl6 2.369239 2.392471 3.203047 0.324844 0.702546 0.683794
Cl7 2.570676 3.910969 2.310689 -0.100939 -0.513626 -0.169965
Cl8 2.570676 3.910969 2.310689 0.100938 -0.513626 0.169965
Cl9 3.732294 2.953065 2.314326 0.721148 0.569107 -0.196515
Cl10 3.732294 2.953065 2.314327 -0.721149 0.569107 0.196515
C1 1.940441 2.200053 1.776267 -0.124453 0.131960 -0.182095
C2 1.940441 2.200053 1.776267 0.124452 0.131960 0.182095
C3 2.009444 2.041192 1.776113 0.067710 0.301015 -0.055101
C4 2.009444 2.041192 1.776113 -0.067711 0.301015 0.055101
C5 2.166701 2.043640 1.778933 0.052273 0.307274 -0.120994
C6 2.166701 2.043640 1.778933 -0.052274 0.307274 0.120994
C7 1.832704 1.907123 1.959777 -0.135374 0.328973 -0.170151
C8 1.832704 1.907123 1.959777 0.135374 0.328973 0.170151
C9 1.884240 2.101436 1.775670 -0.129223 0.122538 -0.037851
C10 1.884240 2.101436 1.775670 0.129222 0.122538 0.037851
N1 2.189657 2.262192 2.002117 0.002378 0.224263 -0.515320
N2 2.189657 2.262192 2.002117 -0.002379 0.224263 0.515320
#end of data_B.cif_250K

data_B.cif_260K

_audit_creation_method 'generated by Molecular-Toolbox 1.0.1' 
_chemical_formula_sum
'Cl10 C10 N2'

_cell_length_a 5.350524 
_cell_length_b 5.192441 
_cell_length_c 15.058446 
_cell_angle_alpha 89.999991 
_cell_angle_beta 99.578013
_cell_angle_gamma 89.999998

_symmetry_space_group_name_H-M  'P1'

 loop_
_atom_site_type_symbol 
_atom_site_label 
_atom_site_fract_x 
_atom_site_fract_y 
_atom_site_fract_z
Cl Cl1 0.114907 0.676724 0.332801
Cl Cl2 0.114907 0.323276 0.832801
Cl Cl3 0.532189 0.109277 0.324131
Cl Cl4 0.532189 0.890723 0.824131
Cl Cl5 0.961821 0.177153 0.492122
Cl Cl6 0.961822 0.822847 0.992122
Cl Cl7 0.968687 0.816203 0.659963
Cl Cl8 0.968687 0.183798 0.159963
Cl Cl9 0.531625 0.397008 0.653072
Cl Cl10 0.531625 0.602992 0.153072
C C1 0.358249 0.725623 0.421526
C C2 0.358250 0.274377 0.921526
C C3 0.541036 0.917683 0.416909
C C4 0.541036 0.082316 0.916909
C C5 0.543036 0.602683 0.563769
C C6 0.543036 0.397317 0.063768
C C7 0.734086 0.947693 0.492192
C C8 0.734087 0.052307 0.992192
C C9 0.737384 0.786761 0.567790
C C10 0.737384 0.213239 0.067790
N N1 0.361978 0.575492 0.492894
N N2 0.361978 0.424508 0.992894
loop_
_atom_site_aniso_label
_atom_site_aniso_B_11
_atom_site_aniso_B_22
_atom_site_aniso_B_33
_atom_site_aniso_B_23
_atom_site_aniso_B_13
_atom_site_aniso_B_12
# Additional Data for B_Aniso: 260.000000
Cl1 2.734397 3.751318 2.410850 -0.299821 -0.487496 -0.378593
Cl2 2.734397 3.751318 2.410850 0.299820 -0.487496 0.378593
Cl3 3.657790 3.322977 2.428446 0.910944 0.389633 -0.155873
Cl4 3.657790 3.322977 2.428446 -0.910945 0.389633 0.155872
Cl5 2.461377 2.485561 3.328405 -0.337826 0.730244 -0.710970
Cl6 2.461377 2.485561 3.328405 0.337825 0.730244 0.710969
Cl7 2.670913 4.064698 2.400596 -0.104955 -0.534444 -0.176713
Cl8 2.670913 4.064698 2.400595 0.104953 -0.534444 0.176713
Cl9 3.878805 3.068578 2.404310 0.749833 0.591375 -0.204381
Cl10 3.878831 3.068579 2.404310 -0.749834 0.591453 0.204381
C1 2.012877 2.282563 1.842455 -0.129969 0.136963 -0.188629
C2 2.012877 2.282563 1.842455 0.129969 0.136963 0.188628
C3 2.084568 2.117306 1.842275 0.069766 0.312864 -0.056468
C4 2.084568 2.117306 1.842276 -0.069767 0.312864 0.056468
C5 2.248173 2.119912 1.845253 0.053860 0.319294 -0.125010
C6 2.248173 2.119912 1.845253 -0.053861 0.319294 0.125009
C7 1.900747 1.977948 2.033363 -0.141366 0.341850 -0.176064
C8 1.900747 1.977948 2.033363 0.141365 0.341850 0.176064
C9 1.954346 2.179919 1.841859 -0.135066 0.127233 -0.038522
C10 1.954346 2.179919 1.841859 0.135065 0.127233 0.038522
N1 2.272102 2.347308 2.077930 0.001863 0.233126 -0.535494
N2 2.272102 2.347308 2.077930 -0.001864 0.233126 0.535494
#end of data_B.cif_260K

data_B.cif_270K

_audit_creation_method 'generated by Molecular-Toolbox 1.0.1' 
_chemical_formula_sum
'Cl10 C10 N2'

_cell_length_a 5.350524 
_cell_length_b 5.192441 
_cell_length_c 15.058446 
_cell_angle_alpha 89.999991 
_cell_angle_beta 99.578013
_cell_angle_gamma 89.999998

_symmetry_space_group_name_H-M  'P1'

 loop_
_atom_site_type_symbol 
_atom_site_label 
_atom_site_fract_x 
_atom_site_fract_y 
_atom_site_fract_z
Cl Cl1 0.114907 0.676724 0.332801
Cl Cl2 0.114907 0.323276 0.832801
Cl Cl3 0.532189 0.109277 0.324131
Cl Cl4 0.532189 0.890723 0.824131
Cl Cl5 0.961821 0.177153 0.492122
Cl Cl6 0.961822 0.822847 0.992122
Cl Cl7 0.968687 0.816203 0.659963
Cl Cl8 0.968687 0.183798 0.159963
Cl Cl9 0.531625 0.397008 0.653072
Cl Cl10 0.531625 0.602992 0.153072
C C1 0.358249 0.725623 0.421526
C C2 0.358250 0.274377 0.921526
C C3 0.541036 0.917683 0.416909
C C4 0.541036 0.082316 0.916909
C C5 0.543036 0.602683 0.563769
C C6 0.543036 0.397317 0.063768
C C7 0.734086 0.947693 0.492192
C C8 0.734087 0.052307 0.992192
C C9 0.737384 0.786761 0.567790
C C10 0.737384 0.213239 0.067790
N N1 0.361978 0.575492 0.492894
N N2 0.361978 0.424508 0.992894
loop_
_atom_site_aniso_label
_atom_site_aniso_B_11
_atom_site_aniso_B_22
_atom_site_aniso_B_33
_atom_site_aniso_B_23
_atom_site_aniso_B_13
_atom_site_aniso_B_12
# Additional Data for B_Aniso: 270.000000
Cl1 2.837139 3.893125 2.501145 -0.311326 -0.506539 -0.393141
Cl2 2.837139 3.893125 2.501145 0.311325 -0.506540 0.393140
Cl3 3.795930 3.448361 2.519406 0.945865 0.404213 -0.161833
Cl4 3.795930 3.448361 2.519406 -0.945866 0.404213 0.161833
Cl5 2.553647 2.578809 3.453922 -0.350886 0.757890 -0.738236
Cl6 2.553647 2.578809 3.453921 0.350885 0.757890 0.738236
Cl7 2.771228 4.218427 2.490581 -0.109049 -0.555249 -0.183475
Cl8 2.771228 4.218427 2.490581 0.109048 -0.555249 0.183475
Cl9 4.025424 3.184092 2.494451 0.778518 0.613748 -0.212169
Cl10 4.025424 3.184092 2.494451 -0.778519 0.613748 0.212169
C1 2.085368 2.365231 1.908801 -0.135565 0.141914 -0.195175
C2 2.085368 2.365231 1.908801 0.135564 0.141914 0.195175
C3 2.159849 2.193500 1.908596 0.071901 0.324740 -0.057744
C4 2.159849 2.193500 1.908596 -0.071902 0.324740 0.057743
C5 2.329826 2.196342 1.911652 0.055447 0.331404 -0.129103
C6 2.329826 2.196342 1.911652 -0.055448 0.331404 0.129102
C7 1.968974 2.048851 2.107106 -0.147357 0.354832 -0.182133
C8 1.968974 2.048851 2.107106 0.147357 0.354832 0.182132
C9 2.024579 2.258560 1.908049 -0.140830 0.131851 -0.039181
C10 2.024579 2.258560 1.908049 0.140830 0.131851 0.039180
N1 2.354702 2.432502 2.153821 0.001348 0.242002 -0.555745
N2 2.354702 2.432502 2.153821 -0.001349 0.242001 0.555745
#end of data_B.cif_270K

data_B.cif_280K

_audit_creation_method 'generated by Molecular-Toolbox 1.0.1' 
_chemical_formula_sum
'Cl10 C10 N2'

_cell_length_a 5.350524 
_cell_length_b 5.192441 
_cell_length_c 15.058446 
_cell_angle_alpha 89.999991 
_cell_angle_beta 99.578013
_cell_angle_gamma 89.999998

_symmetry_space_group_name_H-M  'P1'

 loop_
_atom_site_type_symbol 
_atom_site_label 
_atom_site_fract_x 
_atom_site_fract_y 
_atom_site_fract_z
Cl Cl1 0.114907 0.676724 0.332801
Cl Cl2 0.114907 0.323276 0.832801
Cl Cl3 0.532189 0.109277 0.324131
Cl Cl4 0.532189 0.890723 0.824131
Cl Cl5 0.961821 0.177153 0.492122
Cl Cl6 0.961822 0.822847 0.992122
Cl Cl7 0.968687 0.816203 0.659963
Cl Cl8 0.968687 0.183798 0.159963
Cl Cl9 0.531625 0.397008 0.653072
Cl Cl10 0.531625 0.602992 0.153072
C C1 0.358249 0.725623 0.421526
C C2 0.358250 0.274377 0.921526
C C3 0.541036 0.917683 0.416909
C C4 0.541036 0.082316 0.916909
C C5 0.543036 0.602683 0.563769
C C6 0.543036 0.397317 0.063768
C C7 0.734086 0.947693 0.492192
C C8 0.734087 0.052307 0.992192
C C9 0.737384 0.786761 0.567790
C C10 0.737384 0.213239 0.067790
N N1 0.361978 0.575492 0.492894
N N2 0.361978 0.424508 0.992894
loop_
_atom_site_aniso_label
_atom_site_aniso_B_11
_atom_site_aniso_B_22
_atom_site_aniso_B_33
_atom_site_aniso_B_23
_atom_site_aniso_B_13
_atom_site_aniso_B_12
# Additional Data for B_Aniso: 280.000000
Cl1 2.939962 4.034931 2.591598 -0.322830 -0.525556 -0.407611
Cl2 2.939962 4.034931 2.591598 0.322829 -0.525556 0.407610
Cl3 3.934150 3.573744 2.610524 0.980786 0.418819 -0.167794
Cl4 3.934150 3.573744 2.610524 -0.980787 0.418819 0.167794
Cl5 2.645920 2.672057 3.579517 -0.363868 0.785550 -0.765411
Cl6 2.645920 2.672057 3.579517 0.363867 0.785550 0.765411
Cl7 2.871620 4.372314 2.580567 -0.113065 -0.576054 -0.190223
Cl8 2.871620 4.372314 2.580567 0.113063 -0.576054 0.190223
Cl9 4.172196 3.299764 2.584592 0.807282 0.636120 -0.220022
Cl10 4.172196 3.299764 2.584592 -0.807283 0.636120 0.220022
C1 2.157936 2.448057 1.975148 -0.141081 0.146866 -0.201709
C2 2.157936 2.448057 1.975148 0.141081 0.146866 0.201709
C3 2.235181 2.269851 1.974917 0.074115 0.336537 -0.059162
C4 2.235181 2.269851 1.974917 -0.074116 0.336537 0.059162
C5 2.411456 2.272773 1.978130 0.057035 0.343450 -0.133196
C6 2.411456 2.272772 1.978130 -0.057035 0.343450 0.133195
C7 2.037251 2.119833 2.180849 -0.153270 0.367735 -0.188188
C8 2.037251 2.119833 2.180849 0.153269 0.367735 0.188187
C9 2.094894 2.337359 1.974397 -0.146516 0.136495 -0.039825
C10 2.094894 2.337359 1.974396 0.146515 0.136495 0.039825
N1 2.437355 2.517776 2.229792 0.000911 0.250813 -0.575906
N2 2.437355 2.517776 2.229792 -0.000912 0.250813 0.575905
#end of data_B.cif_280K

data_B.cif_290K

_audit_creation_method 'generated by Molecular-Toolbox 1.0.1' 
_chemical_formula_sum
'Cl10 C10 N2'

_cell_length_a 5.350524 
_cell_length_b 5.192441 
_cell_length_c 15.058446 
_cell_angle_alpha 89.999991 
_cell_angle_beta 99.578013
_cell_angle_gamma 89.999998

_symmetry_space_group_name_H-M  'P1'

 loop_
_atom_site_type_symbol 
_atom_site_label 
_atom_site_fract_x 
_atom_site_fract_y 
_atom_site_fract_z
Cl Cl1 0.114907 0.676724 0.332801
Cl Cl2 0.114907 0.323276 0.832801
Cl Cl3 0.532189 0.109277 0.324131
Cl Cl4 0.532189 0.890723 0.824131
Cl Cl5 0.961821 0.177153 0.492122
Cl Cl6 0.961822 0.822847 0.992122
Cl Cl7 0.968687 0.816203 0.659963
Cl Cl8 0.968687 0.183798 0.159963
Cl Cl9 0.531625 0.397008 0.653072
Cl Cl10 0.531625 0.602992 0.153072
C C1 0.358249 0.725623 0.421526
C C2 0.358250 0.274377 0.921526
C C3 0.541036 0.917683 0.416909
C C4 0.541036 0.082316 0.916909
C C5 0.543036 0.602683 0.563769
C C6 0.543036 0.397317 0.063768
C C7 0.734086 0.947693 0.492192
C C8 0.734087 0.052307 0.992192
C C9 0.737384 0.786761 0.567790
C C10 0.737384 0.213239 0.067790
N N1 0.361978 0.575492 0.492894
N N2 0.361978 0.424508 0.992894
loop_
_atom_site_aniso_label
_atom_site_aniso_B_11
_atom_site_aniso_B_22
_atom_site_aniso_B_33
_atom_site_aniso_B_23
_atom_site_aniso_B_13
_atom_site_aniso_B_12
# Additional Data for B_Aniso: 290.000000
Cl1 3.042861 4.176817 2.682051 -0.334334 -0.544573 -0.422158
Cl2 3.042861 4.176817 2.682051 0.334333 -0.544573 0.422158
Cl3 4.072450 3.699286 2.701721 1.015707 0.433438 -0.173755
Cl4 4.072450 3.699286 2.701721 -1.015708 0.433438 0.173754
Cl5 2.738372 2.765384 3.705112 -0.376849 0.813287 -0.792665
Cl6 2.738372 2.765384 3.705112 0.376848 0.813287 0.792664
Cl7 2.972067 4.526280 2.670711 -0.117080 -0.596910 -0.196971
Cl8 2.972067 4.526280 2.670711 0.117079 -0.596910 0.196971
Cl9 4.318944 3.415436 2.674812 0.835967 0.658428 -0.227888
Cl10 4.318944 3.415436 2.674813 -0.835968 0.658428 0.227887
C1 2.230582 2.530882 2.041573 -0.146598 0.151830 -0.208320
C2 2.230582 2.530882 2.041573 0.146597 0.151830 0.208320
C3 2.310566 2.346281 2.041317 0.076250 0.348270 -0.060594
C4 2.310566 2.346281 2.041317 -0.076251 0.348270 0.060593
C5 2.493215 2.349361 2.044687 0.058701 0.355431 -0.137353
C6 2.493215 2.349361 2.044687 -0.058702 0.355431 0.137353
C7 2.105579 2.190894 2.254593 -0.159182 0.380561 -0.194243
C8 2.105579 2.190894 2.254593 0.159181 0.380561 0.194242
C9 2.165285 2.416158 2.040744 -0.152280 0.141139 -0.040561
C10 2.165285 2.416158 2.040744 0.152279 0.141139 0.040561
N1 2.520086 2.603207 2.305841 0.000396 0.259637 -0.596157
N2 2.520086 2.603207 2.305841 -0.000397 0.259637 0.596157
#end of data_B.cif_290K

data_B.cif_300K

_audit_creation_method 'generated by Molecular-Toolbox 1.0.1' 
_chemical_formula_sum
'Cl10 C10 N2'

_cell_length_a 5.350524 
_cell_length_b 5.192441 
_cell_length_c 15.058446 
_cell_angle_alpha 89.999991 
_cell_angle_beta 99.578013
_cell_angle_gamma 89.999998

_symmetry_space_group_name_H-M  'P1'

 loop_
_atom_site_type_symbol 
_atom_site_label 
_atom_site_fract_x 
_atom_site_fract_y 
_atom_site_fract_z
Cl Cl1 0.114907 0.676724 0.332801
Cl Cl2 0.114907 0.323276 0.832801
Cl Cl3 0.532189 0.109277 0.324131
Cl Cl4 0.532189 0.890723 0.824131
Cl Cl5 0.961821 0.177153 0.492122
Cl Cl6 0.961822 0.822847 0.992122
Cl Cl7 0.968687 0.816203 0.659963
Cl Cl8 0.968687 0.183798 0.159963
Cl Cl9 0.531625 0.397008 0.653072
Cl Cl10 0.531625 0.602992 0.153072
C C1 0.358249 0.725623 0.421526
C C2 0.358250 0.274377 0.921526
C C3 0.541036 0.917683 0.416909
C C4 0.541036 0.082316 0.916909
C C5 0.543036 0.602683 0.563769
C C6 0.543036 0.397317 0.063768
C C7 0.734086 0.947693 0.492192
C C8 0.734087 0.052307 0.992192
C C9 0.737384 0.786761 0.567790
C C10 0.737384 0.213239 0.067790
N N1 0.361978 0.575492 0.492894
N N2 0.361978 0.424508 0.992894
loop_
_atom_site_aniso_label
_atom_site_aniso_B_11
_atom_site_aniso_B_22
_atom_site_aniso_B_33
_atom_site_aniso_B_23
_atom_site_aniso_B_13
_atom_site_aniso_B_12
# Additional Data for B_Aniso: 300.000000
Cl1 3.145839 4.318781 2.772583 -0.345839 -0.563577 -0.436706
Cl2 3.145839 4.318781 2.772583 0.345838 -0.563577 0.436706
Cl3 4.210826 3.824827 2.792918 1.050628 0.448057 -0.179793
Cl4 4.210826 3.824827 2.792918 -1.050629 0.448057 0.179793
Cl5 2.830802 2.858711 3.830865 -0.389909 0.840973 -0.819853
Cl6 2.830802 2.858711 3.830865 0.389908 0.840973 0.819853
Cl7 3.072540 4.680324 2.760854 -0.121095 -0.617688 -0.203797
Cl8 3.072540 4.680324 2.760854 0.121094 -0.617689 0.203797
Cl9 4.465871 3.531265 2.765032 0.864730 0.680813 -0.235741
Cl10 4.465871 3.531266 2.765033 -0.864732 0.680813 0.235740
C1 2.303308 2.613787 2.108077 -0.152035 0.156808 -0.214918
C2 2.303308 2.613787 2.108077 0.152034 0.156807 0.214918
C3 2.386054 2.422790 2.107717 0.078464 0.360081 -0.062012
C4 2.386054 2.422790 2.107717 -0.078465 0.360081 0.062012
C5 2.575077 2.426028 2.111244 0.060367 0.367490 -0.141511
C6 2.575077 2.426028 2.111244 -0.060368 0.367490 0.141510
C7 2.174015 2.262113 2.328494 -0.165094 0.393491 -0.200376
C8 2.174015 2.262113 2.328494 0.165093 0.393491 0.200375
C9 2.235756 2.495115 2.107170 -0.157965 0.145796 -0.041362
C10 2.235756 2.495115 2.107170 0.157964 0.145796 0.041362
N1 2.602971 2.688796 2.381891 0.000039 0.268461 -0.616460
N2 2.602971 2.688796 2.381891 -0.000040 0.268461 0.616459
#end of data_B.cif_300K

