data_U.cif-0K

_audit_creation_method 'generated by Molecular-Toolbox 1.0.1' 
_chemical_formula_sum
'Cl10 C10 N2'

_cell_length_a 5.350524 
_cell_length_b 5.192441 
_cell_length_c 15.058446 
_cell_angle_alpha 89.999991 
_cell_angle_beta 99.578013
_cell_angle_gamma 89.999998

_symmetry_space_group_name_H-M  'P1'

 loop_
_atom_site_type_symbol 
_atom_site_label 
_atom_site_fract_x 
_atom_site_fract_y 
_atom_site_fract_z
Cl Cl1 0.114907 0.676724 0.332801
Cl Cl2 0.114907 0.323276 0.832801
Cl Cl3 0.532189 0.109277 0.324131
Cl Cl4 0.532189 0.890723 0.824131
Cl Cl5 0.961821 0.177153 0.492122
Cl Cl6 0.961822 0.822847 0.992122
Cl Cl7 0.968687 0.816203 0.659963
Cl Cl8 0.968687 0.183798 0.159963
Cl Cl9 0.531625 0.397008 0.653072
Cl Cl10 0.531625 0.602992 0.153072
C C1 0.358249 0.725623 0.421526
C C2 0.358250 0.274377 0.921526
C C3 0.541036 0.917683 0.416909
C C4 0.541036 0.082316 0.916909
C C5 0.543036 0.602683 0.563769
C C6 0.543036 0.397317 0.063768
C C7 0.734086 0.947693 0.492192
C C8 0.734087 0.052307 0.992192
C C9 0.737384 0.786761 0.567790
C C10 0.737384 0.213239 0.067790
N N1 0.361978 0.575492 0.492894
N N2 0.361978 0.424508 0.992894
loop_
_atom_site_aniso_label
_atom_site_aniso_U_11
_atom_site_aniso_U_22
_atom_site_aniso_U_33
_atom_site_aniso_U_23
_atom_site_aniso_U_13
_atom_site_aniso_U_12
# Additional Data for U_Aniso: 0.000000
Cl1 0.004533 0.006011 0.004124 -0.000078 -0.000871 -0.000815
Cl2 0.004533 0.006011 0.004124 0.000078 -0.000871 0.000815
Cl3 0.005886 0.005437 0.003950 0.001618 0.000373 -0.000554
Cl4 0.005886 0.005437 0.003950 -0.001618 0.000373 0.000554
Cl5 0.004173 0.004238 0.005192 0.000017 0.000799 -0.001337
Cl6 0.004173 0.004238 0.005192 -0.000017 0.000799 0.001337
Cl7 0.004574 0.006339 0.003931 0.000280 -0.000892 -0.000640
Cl8 0.004574 0.006339 0.003931 -0.000280 -0.000892 0.000640
Cl9 0.006116 0.005091 0.004119 0.001509 0.000746 -0.000609
Cl10 0.006116 0.005091 0.004119 -0.001509 0.000746 0.000609
C1 0.004052 0.004507 0.003683 0.000352 -0.000003 -0.000781
C2 0.004052 0.004507 0.003683 -0.000352 -0.000003 0.000781
C3 0.004178 0.004422 0.003638 0.000624 0.000122 -0.000744
C4 0.004178 0.004422 0.003638 -0.000624 0.000122 0.000744
C5 0.004329 0.004318 0.003686 0.000603 0.000246 -0.000720
C6 0.004329 0.004318 0.003686 -0.000603 0.000246 0.000720
C7 0.003955 0.004176 0.003764 0.000410 0.000190 -0.000806
C8 0.003955 0.004176 0.003764 -0.000410 0.000190 0.000806
C9 0.004088 0.004425 0.003635 0.000462 -0.000018 -0.000721
C10 0.004088 0.004425 0.003635 -0.000462 -0.000018 0.000721
N1 0.004650 0.004991 0.003967 0.000761 -0.000097 -0.001324
N2 0.004650 0.004991 0.003967 -0.000761 -0.000097 0.001324
#end of data_U.cif_0K

data_U.cif-10K

_audit_creation_method 'generated by Molecular-Toolbox 1.0.1' 
_chemical_formula_sum
'Cl10 C10 N2'

_cell_length_a 5.350524 
_cell_length_b 5.192441 
_cell_length_c 15.058446 
_cell_angle_alpha 89.999991 
_cell_angle_beta 99.578013
_cell_angle_gamma 89.999998

_symmetry_space_group_name_H-M  'P1'

 loop_
_atom_site_type_symbol 
_atom_site_label 
_atom_site_fract_x 
_atom_site_fract_y 
_atom_site_fract_z
Cl Cl1 0.114907 0.676724 0.332801
Cl Cl2 0.114907 0.323276 0.832801
Cl Cl3 0.532189 0.109277 0.324131
Cl Cl4 0.532189 0.890723 0.824131
Cl Cl5 0.961821 0.177153 0.492122
Cl Cl6 0.961822 0.822847 0.992122
Cl Cl7 0.968687 0.816203 0.659963
Cl Cl8 0.968687 0.183798 0.159963
Cl Cl9 0.531625 0.397008 0.653072
Cl Cl10 0.531625 0.602992 0.153072
C C1 0.358249 0.725623 0.421526
C C2 0.358250 0.274377 0.921526
C C3 0.541036 0.917683 0.416909
C C4 0.541036 0.082316 0.916909
C C5 0.543036 0.602683 0.563769
C C6 0.543036 0.397317 0.063768
C C7 0.734086 0.947693 0.492192
C C8 0.734087 0.052307 0.992192
C C9 0.737384 0.786761 0.567790
C C10 0.737384 0.213239 0.067790
N N1 0.361978 0.575492 0.492894
N N2 0.361978 0.424508 0.992894
loop_
_atom_site_aniso_label
_atom_site_aniso_U_11
_atom_site_aniso_U_22
_atom_site_aniso_U_33
_atom_site_aniso_U_23
_atom_site_aniso_U_13
_atom_site_aniso_U_12
# Additional Data for U_Aniso: 10.000000
Cl1 0.004666 0.006189 0.004242 -0.000106 -0.000866 -0.000825
Cl2 0.004666 0.006189 0.004242 0.000105 -0.000866 0.000825
Cl3 0.006039 0.005595 0.004080 0.001618 0.000396 -0.000556
Cl4 0.006039 0.005595 0.004080 -0.001618 0.000396 0.000556
Cl5 0.004307 0.004385 0.005343 -0.000017 0.000830 -0.001358
Cl6 0.004307 0.004385 0.005343 0.000017 0.000830 0.001358
Cl7 0.004700 0.006523 0.004059 0.000253 -0.000893 -0.000640
Cl8 0.004700 0.006523 0.004059 -0.000253 -0.000893 0.000640
Cl9 0.006277 0.005248 0.004239 0.001502 0.000771 -0.000611
Cl10 0.006277 0.005248 0.004239 -0.001502 0.000771 0.000611
C1 0.004174 0.004652 0.003794 0.000330 0.000011 -0.000790
C2 0.004174 0.004652 0.003794 -0.000330 0.000011 0.000790
C3 0.004302 0.004561 0.003753 0.000607 0.000140 -0.000749
C4 0.004302 0.004561 0.003753 -0.000607 0.000140 0.000749
C5 0.004457 0.004457 0.003798 0.000584 0.000263 -0.000725
C6 0.004457 0.004457 0.003798 -0.000584 0.000263 0.000725
C7 0.004074 0.004311 0.003885 0.000385 0.000209 -0.000813
C8 0.004074 0.004311 0.003885 -0.000385 0.000209 0.000813
C9 0.004206 0.004567 0.003750 0.000437 -0.000006 -0.000724
C10 0.004206 0.004567 0.003750 -0.000437 -0.000006 0.000724
N1 0.004777 0.005135 0.004080 0.000739 -0.000079 -0.001339
N2 0.004777 0.005135 0.004080 -0.000739 -0.000079 0.001339
#end of data_U.cif_10K

data_U.cif-20K

_audit_creation_method 'generated by Molecular-Toolbox 1.0.1' 
_chemical_formula_sum
'Cl10 C10 N2'

_cell_length_a 5.350524 
_cell_length_b 5.192441 
_cell_length_c 15.058446 
_cell_angle_alpha 89.999991 
_cell_angle_beta 99.578013
_cell_angle_gamma 89.999998

_symmetry_space_group_name_H-M  'P1'

 loop_
_atom_site_type_symbol 
_atom_site_label 
_atom_site_fract_x 
_atom_site_fract_y 
_atom_site_fract_z
Cl Cl1 0.114907 0.676724 0.332801
Cl Cl2 0.114907 0.323276 0.832801
Cl Cl3 0.532189 0.109277 0.324131
Cl Cl4 0.532189 0.890723 0.824131
Cl Cl5 0.961821 0.177153 0.492122
Cl Cl6 0.961822 0.822847 0.992122
Cl Cl7 0.968687 0.816203 0.659963
Cl Cl8 0.968687 0.183798 0.159963
Cl Cl9 0.531625 0.397008 0.653072
Cl Cl10 0.531625 0.602992 0.153072
C C1 0.358249 0.725623 0.421526
C C2 0.358250 0.274377 0.921526
C C3 0.541036 0.917683 0.416909
C C4 0.541036 0.082316 0.916909
C C5 0.543036 0.602683 0.563769
C C6 0.543036 0.397317 0.063768
C C7 0.734086 0.947693 0.492192
C C8 0.734087 0.052307 0.992192
C C9 0.737384 0.786761 0.567790
C C10 0.737384 0.213239 0.067790
N N1 0.361978 0.575492 0.492894
N N2 0.361978 0.424508 0.992894
loop_
_atom_site_aniso_label
_atom_site_aniso_U_11
_atom_site_aniso_U_22
_atom_site_aniso_U_33
_atom_site_aniso_U_23
_atom_site_aniso_U_13
_atom_site_aniso_U_12
# Additional Data for U_Aniso: 20.000000
Cl1 0.005209 0.006929 0.004704 -0.000227 -0.000894 -0.000839
Cl2 0.005209 0.006929 0.004704 0.000227 -0.000894 0.000839
Cl3 0.006747 0.006224 0.004593 0.001709 0.000538 -0.000513
Cl4 0.006747 0.006224 0.004593 -0.001709 0.000538 0.000513
Cl5 0.004826 0.004917 0.006053 -0.000165 0.001022 -0.001457
Cl6 0.004826 0.004917 0.006053 0.000165 0.001022 0.001457
Cl7 0.005206 0.007325 0.004565 0.000134 -0.000941 -0.000596
Cl8 0.005206 0.007325 0.004565 -0.000134 -0.000941 0.000596
Cl9 0.007034 0.005844 0.004700 0.001545 0.000916 -0.000578
Cl10 0.007034 0.005844 0.004700 -0.001545 0.000916 0.000578
C1 0.004619 0.005163 0.004185 0.000261 0.000063 -0.000805
C2 0.004619 0.005163 0.004185 -0.000261 0.000063 0.000805
C3 0.004763 0.005033 0.004167 0.000576 0.000231 -0.000735
C4 0.004763 0.005033 0.004167 -0.000576 0.000231 0.000735
C5 0.004949 0.004934 0.004190 0.000540 0.000341 -0.000725
C6 0.004949 0.004934 0.004190 -0.000540 0.000341 0.000725
C7 0.004498 0.004765 0.004348 0.000303 0.000303 -0.000828
C8 0.004498 0.004765 0.004348 -0.000303 0.000303 0.000828
C9 0.004633 0.005063 0.004163 0.000353 0.000036 -0.000705
C10 0.004633 0.005063 0.004163 -0.000353 0.000036 0.000705
N1 0.005258 0.005631 0.004500 0.000673 -0.000001 -0.001405
N2 0.005258 0.005631 0.004500 -0.000673 -0.000001 0.001405
#end of data_U.cif_20K

data_U.cif-30K

_audit_creation_method 'generated by Molecular-Toolbox 1.0.1' 
_chemical_formula_sum
'Cl10 C10 N2'

_cell_length_a 5.350524 
_cell_length_b 5.192441 
_cell_length_c 15.058446 
_cell_angle_alpha 89.999991 
_cell_angle_beta 99.578013
_cell_angle_gamma 89.999998

_symmetry_space_group_name_H-M  'P1'

 loop_
_atom_site_type_symbol 
_atom_site_label 
_atom_site_fract_x 
_atom_site_fract_y 
_atom_site_fract_z
Cl Cl1 0.114907 0.676724 0.332801
Cl Cl2 0.114907 0.323276 0.832801
Cl Cl3 0.532189 0.109277 0.324131
Cl Cl4 0.532189 0.890723 0.824131
Cl Cl5 0.961821 0.177153 0.492122
Cl Cl6 0.961822 0.822847 0.992122
Cl Cl7 0.968687 0.816203 0.659963
Cl Cl8 0.968687 0.183798 0.159963
Cl Cl9 0.531625 0.397008 0.653072
Cl Cl10 0.531625 0.602992 0.153072
C C1 0.358249 0.725623 0.421526
C C2 0.358250 0.274377 0.921526
C C3 0.541036 0.917683 0.416909
C C4 0.541036 0.082316 0.916909
C C5 0.543036 0.602683 0.563769
C C6 0.543036 0.397317 0.063768
C C7 0.734086 0.947693 0.492192
C C8 0.734087 0.052307 0.992192
C C9 0.737384 0.786761 0.567790
C C10 0.737384 0.213239 0.067790
N N1 0.361978 0.575492 0.492894
N N2 0.361978 0.424508 0.992894
loop_
_atom_site_aniso_label
_atom_site_aniso_U_11
_atom_site_aniso_U_22
_atom_site_aniso_U_33
_atom_site_aniso_U_23
_atom_site_aniso_U_13
_atom_site_aniso_U_12
# Additional Data for U_Aniso: 30.000000
Cl1 0.006044 0.008070 0.005434 -0.000391 -0.000982 -0.000881
Cl2 0.006044 0.008070 0.005434 0.000391 -0.000982 0.000881
Cl3 0.007865 0.007212 0.005369 0.001921 0.000735 -0.000474
Cl4 0.007865 0.007212 0.005369 -0.001921 0.000735 0.000474
Cl5 0.005589 0.005680 0.007138 -0.000361 0.001319 -0.001619
Cl6 0.005589 0.005680 0.007138 0.000361 0.001319 0.001619
Cl7 0.005994 0.008576 0.005329 0.000003 -0.001052 -0.000557
Cl8 0.005994 0.008576 0.005329 -0.000003 -0.001052 0.000557
Cl9 0.008231 0.006759 0.005427 0.001686 0.001147 -0.000558
Cl10 0.008231 0.006759 0.005427 -0.001686 0.001147 0.000558
C1 0.005261 0.005890 0.004766 0.000171 0.000138 -0.000825
C2 0.005261 0.005890 0.004766 -0.000171 0.000138 0.000825
C3 0.005431 0.005699 0.004766 0.000553 0.000371 -0.000708
C4 0.005431 0.005699 0.004766 -0.000553 0.000371 0.000708
C5 0.005670 0.005606 0.004773 0.000501 0.000468 -0.000721
C6 0.005670 0.005606 0.004773 -0.000501 0.000468 0.000721
C7 0.005102 0.005392 0.005023 0.000201 0.000450 -0.000846
C8 0.005102 0.005392 0.005023 -0.000201 0.000450 0.000846
C9 0.005248 0.005762 0.004763 0.000249 0.000101 -0.000670
C10 0.005248 0.005762 0.004763 -0.000249 0.000101 0.000670
N1 0.005959 0.006337 0.005142 0.000597 0.000124 -0.001516
N2 0.005959 0.006337 0.005142 -0.000597 0.000124 0.001516
#end of data_U.cif_30K

data_U.cif-40K

_audit_creation_method 'generated by Molecular-Toolbox 1.0.1' 
_chemical_formula_sum
'Cl10 C10 N2'

_cell_length_a 5.350524 
_cell_length_b 5.192441 
_cell_length_c 15.058446 
_cell_angle_alpha 89.999991 
_cell_angle_beta 99.578013
_cell_angle_gamma 89.999998

_symmetry_space_group_name_H-M  'P1'

 loop_
_atom_site_type_symbol 
_atom_site_label 
_atom_site_fract_x 
_atom_site_fract_y 
_atom_site_fract_z
Cl Cl1 0.114907 0.676724 0.332801
Cl Cl2 0.114907 0.323276 0.832801
Cl Cl3 0.532189 0.109277 0.324131
Cl Cl4 0.532189 0.890723 0.824131
Cl Cl5 0.961821 0.177153 0.492122
Cl Cl6 0.961822 0.822847 0.992122
Cl Cl7 0.968687 0.816203 0.659963
Cl Cl8 0.968687 0.183798 0.159963
Cl Cl9 0.531625 0.397008 0.653072
Cl Cl10 0.531625 0.602992 0.153072
C C1 0.358249 0.725623 0.421526
C C2 0.358250 0.274377 0.921526
C C3 0.541036 0.917683 0.416909
C C4 0.541036 0.082316 0.916909
C C5 0.543036 0.602683 0.563769
C C6 0.543036 0.397317 0.063768
C C7 0.734086 0.947693 0.492192
C C8 0.734087 0.052307 0.992192
C C9 0.737384 0.786761 0.567790
C C10 0.737384 0.213239 0.067790
N N1 0.361978 0.575492 0.492894
N N2 0.361978 0.424508 0.992894
loop_
_atom_site_aniso_label
_atom_site_aniso_U_11
_atom_site_aniso_U_22
_atom_site_aniso_U_33
_atom_site_aniso_U_23
_atom_site_aniso_U_13
_atom_site_aniso_U_12
# Additional Data for U_Aniso: 40.000000
Cl1 0.007040 0.009432 0.006308 -0.000558 -0.001119 -0.000968
Cl2 0.007040 0.009432 0.006308 0.000558 -0.001119 0.000968
Cl3 0.009202 0.008407 0.006277 0.002212 0.000932 -0.000467
Cl4 0.009202 0.008407 0.006277 -0.002212 0.000932 0.000467
Cl5 0.006480 0.006569 0.008395 -0.000561 0.001648 -0.001828
Cl6 0.006480 0.006569 0.008395 0.000561 0.001648 0.001828
Cl7 0.006946 0.010069 0.006224 -0.000105 -0.001211 -0.000551
Cl8 0.006946 0.010069 0.006224 0.000105 -0.001211 0.000551
Cl9 0.009660 0.007860 0.006299 0.001899 0.001404 -0.000573
Cl10 0.009660 0.007860 0.006299 -0.001899 0.001404 0.000573
C1 0.006001 0.006725 0.005443 0.000076 0.000219 -0.000855
C2 0.006001 0.006725 0.005443 -0.000076 0.000219 0.000855
C3 0.006199 0.006462 0.005453 0.000539 0.000528 -0.000678
C4 0.006199 0.006462 0.005453 -0.000539 0.000528 0.000678
C5 0.006502 0.006375 0.005451 0.000475 0.000616 -0.000724
C6 0.006502 0.006375 0.005451 -0.000475 0.000616 0.000724
C7 0.005793 0.006104 0.005797 0.000095 0.000616 -0.000870
C8 0.005793 0.006104 0.005797 -0.000095 0.000616 0.000870
C9 0.005955 0.006559 0.005451 0.000143 0.000173 -0.000635
C10 0.005955 0.006559 0.005451 -0.000143 0.000173 0.000635
N1 0.006770 0.007152 0.005899 0.000526 0.000264 -0.001657
N2 0.006770 0.007152 0.005899 -0.000526 0.000264 0.001657
#end of data_U.cif_40K

data_U.cif-50K

_audit_creation_method 'generated by Molecular-Toolbox 1.0.1' 
_chemical_formula_sum
'Cl10 C10 N2'

_cell_length_a 5.350524 
_cell_length_b 5.192441 
_cell_length_c 15.058446 
_cell_angle_alpha 89.999991 
_cell_angle_beta 99.578013
_cell_angle_gamma 89.999998

_symmetry_space_group_name_H-M  'P1'

 loop_
_atom_site_type_symbol 
_atom_site_label 
_atom_site_fract_x 
_atom_site_fract_y 
_atom_site_fract_z
Cl Cl1 0.114907 0.676724 0.332801
Cl Cl2 0.114907 0.323276 0.832801
Cl Cl3 0.532189 0.109277 0.324131
Cl Cl4 0.532189 0.890723 0.824131
Cl Cl5 0.961821 0.177153 0.492122
Cl Cl6 0.961822 0.822847 0.992122
Cl Cl7 0.968687 0.816203 0.659963
Cl Cl8 0.968687 0.183798 0.159963
Cl Cl9 0.531625 0.397008 0.653072
Cl Cl10 0.531625 0.602992 0.153072
C C1 0.358249 0.725623 0.421526
C C2 0.358250 0.274377 0.921526
C C3 0.541036 0.917683 0.416909
C C4 0.541036 0.082316 0.916909
C C5 0.543036 0.602683 0.563769
C C6 0.543036 0.397317 0.063768
C C7 0.734086 0.947693 0.492192
C C8 0.734087 0.052307 0.992192
C C9 0.737384 0.786761 0.567790
C C10 0.737384 0.213239 0.067790
N N1 0.361978 0.575492 0.492894
N N2 0.361978 0.424508 0.992894
loop_
_atom_site_aniso_label
_atom_site_aniso_U_11
_atom_site_aniso_U_22
_atom_site_aniso_U_33
_atom_site_aniso_U_23
_atom_site_aniso_U_13
_atom_site_aniso_U_12
# Additional Data for U_Aniso: 50.000000
Cl1 0.008126 0.010921 0.007262 -0.000718 -0.001288 -0.001085
Cl2 0.008126 0.010921 0.007262 0.000718 -0.001288 0.001085
Cl3 0.010660 0.009722 0.007257 0.002550 0.001120 -0.000489
Cl4 0.010660 0.009722 0.007257 -0.002550 0.001120 0.000489
Cl5 0.007447 0.007536 0.009746 -0.000752 0.001984 -0.002073
Cl6 0.007447 0.007536 0.009746 0.000752 0.001984 0.002073
Cl7 0.007992 0.011701 0.007191 -0.000193 -0.001404 -0.000576
Cl8 0.007992 0.011701 0.007191 0.000193 -0.001404 0.000576
Cl9 0.011218 0.009068 0.007249 0.002158 0.001668 -0.000617
Cl10 0.011218 0.009068 0.007249 -0.002158 0.001668 0.000617
C1 0.006789 0.007619 0.006170 -0.000018 0.000298 -0.000893
C2 0.006789 0.007619 0.006170 0.000018 0.000298 0.000893
C3 0.007018 0.007278 0.006186 0.000531 0.000690 -0.000653
C4 0.007018 0.007278 0.006186 -0.000531 0.000690 0.000653
C5 0.007394 0.007199 0.006179 0.000459 0.000772 -0.000733
C6 0.007394 0.007199 0.006179 -0.000459 0.000772 0.000733
C7 0.006529 0.006864 0.006621 -0.000010 0.000789 -0.000901
C8 0.006529 0.006864 0.006621 0.000010 0.000789 0.000901
C9 0.006712 0.007409 0.006183 0.000038 0.000247 -0.000602
C10 0.006712 0.007409 0.006183 -0.000038 0.000247 0.000602
N1 0.007640 0.008030 0.006717 0.000463 0.000405 -0.001820
N2 0.007640 0.008030 0.006717 -0.000463 0.000405 0.001820
#end of data_U.cif_50K

data_U.cif-60K

_audit_creation_method 'generated by Molecular-Toolbox 1.0.1' 
_chemical_formula_sum
'Cl10 C10 N2'

_cell_length_a 5.350524 
_cell_length_b 5.192441 
_cell_length_c 15.058446 
_cell_angle_alpha 89.999991 
_cell_angle_beta 99.578013
_cell_angle_gamma 89.999998

_symmetry_space_group_name_H-M  'P1'

 loop_
_atom_site_type_symbol 
_atom_site_label 
_atom_site_fract_x 
_atom_site_fract_y 
_atom_site_fract_z
Cl Cl1 0.114907 0.676724 0.332801
Cl Cl2 0.114907 0.323276 0.832801
Cl Cl3 0.532189 0.109277 0.324131
Cl Cl4 0.532189 0.890723 0.824131
Cl Cl5 0.961821 0.177153 0.492122
Cl Cl6 0.961822 0.822847 0.992122
Cl Cl7 0.968687 0.816203 0.659963
Cl Cl8 0.968687 0.183798 0.159963
Cl Cl9 0.531625 0.397008 0.653072
Cl Cl10 0.531625 0.602992 0.153072
C C1 0.358249 0.725623 0.421526
C C2 0.358250 0.274377 0.921526
C C3 0.541036 0.917683 0.416909
C C4 0.541036 0.082316 0.916909
C C5 0.543036 0.602683 0.563769
C C6 0.543036 0.397317 0.063768
C C7 0.734086 0.947693 0.492192
C C8 0.734087 0.052307 0.992192
C C9 0.737384 0.786761 0.567790
C C10 0.737384 0.213239 0.067790
N N1 0.361978 0.575492 0.492894
N N2 0.361978 0.424508 0.992894
loop_
_atom_site_aniso_label
_atom_site_aniso_U_11
_atom_site_aniso_U_22
_atom_site_aniso_U_33
_atom_site_aniso_U_23
_atom_site_aniso_U_13
_atom_site_aniso_U_12
# Additional Data for U_Aniso: 60.000000
Cl1 0.009268 0.012490 0.008266 -0.000872 -0.001479 -0.001225
Cl2 0.009268 0.012490 0.008266 0.000872 -0.001479 0.001225
Cl3 0.012193 0.011111 0.008280 0.002919 0.001304 -0.000531
Cl4 0.012193 0.011111 0.008280 -0.002919 0.001304 0.000531
Cl5 0.008462 0.008555 0.011152 -0.000937 0.002323 -0.002345
Cl6 0.008462 0.008555 0.011152 0.000937 0.002323 0.002345
Cl7 0.009096 0.013417 0.008200 -0.000267 -0.001619 -0.000622
Cl8 0.009096 0.013417 0.008200 0.000267 -0.001619 0.000622
Cl9 0.012853 0.010343 0.008248 0.002448 0.001933 -0.000682
Cl10 0.012853 0.010343 0.008248 -0.002448 0.001933 0.000682
C1 0.007610 0.008549 0.006926 -0.000109 0.000377 -0.000939
C2 0.007610 0.008549 0.006926 0.000109 0.000377 0.000939
C3 0.007869 0.008126 0.006945 0.000529 0.000855 -0.000632
C4 0.007869 0.008126 0.006945 -0.000529 0.000855 0.000632
C5 0.008320 0.008055 0.006937 0.000449 0.000931 -0.000750
C6 0.008320 0.008055 0.006937 -0.000449 0.000931 0.000750
C7 0.007295 0.007654 0.007474 -0.000111 0.000964 -0.000940
C8 0.007295 0.007654 0.007474 0.000111 0.000964 0.000940
C9 0.007496 0.008291 0.006942 -0.000063 0.000320 -0.000573
C10 0.007496 0.008291 0.006942 0.000063 0.000320 0.000573
N1 0.008549 0.008950 0.007572 0.000408 0.000547 -0.002002
N2 0.008549 0.008950 0.007572 -0.000408 0.000547 0.002002
#end of data_U.cif_60K

data_U.cif-70K

_audit_creation_method 'generated by Molecular-Toolbox 1.0.1' 
_chemical_formula_sum
'Cl10 C10 N2'

_cell_length_a 5.350524 
_cell_length_b 5.192441 
_cell_length_c 15.058446 
_cell_angle_alpha 89.999991 
_cell_angle_beta 99.578013
_cell_angle_gamma 89.999998

_symmetry_space_group_name_H-M  'P1'

 loop_
_atom_site_type_symbol 
_atom_site_label 
_atom_site_fract_x 
_atom_site_fract_y 
_atom_site_fract_z
Cl Cl1 0.114907 0.676724 0.332801
Cl Cl2 0.114907 0.323276 0.832801
Cl Cl3 0.532189 0.109277 0.324131
Cl Cl4 0.532189 0.890723 0.824131
Cl Cl5 0.961821 0.177153 0.492122
Cl Cl6 0.961822 0.822847 0.992122
Cl Cl7 0.968687 0.816203 0.659963
Cl Cl8 0.968687 0.183798 0.159963
Cl Cl9 0.531625 0.397008 0.653072
Cl Cl10 0.531625 0.602992 0.153072
C C1 0.358249 0.725623 0.421526
C C2 0.358250 0.274377 0.921526
C C3 0.541036 0.917683 0.416909
C C4 0.541036 0.082316 0.916909
C C5 0.543036 0.602683 0.563769
C C6 0.543036 0.397317 0.063768
C C7 0.734086 0.947693 0.492192
C C8 0.734087 0.052307 0.992192
C C9 0.737384 0.786761 0.567790
C C10 0.737384 0.213239 0.067790
N N1 0.361978 0.575492 0.492894
N N2 0.361978 0.424508 0.992894
loop_
_atom_site_aniso_label
_atom_site_aniso_U_11
_atom_site_aniso_U_22
_atom_site_aniso_U_33
_atom_site_aniso_U_23
_atom_site_aniso_U_13
_atom_site_aniso_U_12
# Additional Data for U_Aniso: 70.000000
Cl1 0.010446 0.014113 0.009299 -0.001023 -0.001684 -0.001380
Cl2 0.010446 0.014113 0.009299 0.001023 -0.001684 0.001380
Cl3 0.013777 0.012548 0.009330 0.003308 0.001484 -0.000584
Cl4 0.013777 0.012548 0.009330 -0.003308 0.001484 0.000584
Cl5 0.009511 0.009610 0.012598 -0.001114 0.002662 -0.002635
Cl6 0.009511 0.009610 0.012598 0.001114 0.002662 0.002635
Cl7 0.010240 0.015189 0.009237 -0.000333 -0.001847 -0.000680
Cl8 0.010240 0.015189 0.009237 0.000333 -0.001847 0.000680
Cl9 0.014541 0.011663 0.009279 0.002757 0.002201 -0.000757
Cl10 0.014541 0.011663 0.009279 -0.002757 0.002201 0.000757
C1 0.008450 0.009503 0.007701 -0.000198 0.000453 -0.000991
C2 0.008450 0.009503 0.007701 0.000198 0.000453 0.000991
C3 0.008739 0.008996 0.007720 0.000530 0.001018 -0.000614
C4 0.008739 0.008996 0.007720 -0.000530 0.001018 0.000614
C5 0.009270 0.008935 0.007713 0.000444 0.001091 -0.000771
C6 0.009270 0.008935 0.007713 -0.000444 0.001091 0.000771
C7 0.008081 0.008464 0.008344 -0.000210 0.001139 -0.000982
C8 0.008081 0.008464 0.008344 0.000210 0.001139 0.000982
C9 0.008303 0.009194 0.007717 -0.000161 0.000393 -0.000547
C10 0.008303 0.009194 0.007717 0.000161 0.000393 0.000547
N1 0.009484 0.009899 0.008450 0.000359 0.000684 -0.002197
N2 0.009484 0.009899 0.008450 -0.000359 0.000684 0.002197
#end of data_U.cif_70K

data_U.cif-80K

_audit_creation_method 'generated by Molecular-Toolbox 1.0.1' 
_chemical_formula_sum
'Cl10 C10 N2'

_cell_length_a 5.350524 
_cell_length_b 5.192441 
_cell_length_c 15.058446 
_cell_angle_alpha 89.999991 
_cell_angle_beta 99.578013
_cell_angle_gamma 89.999998

_symmetry_space_group_name_H-M  'P1'

 loop_
_atom_site_type_symbol 
_atom_site_label 
_atom_site_fract_x 
_atom_site_fract_y 
_atom_site_fract_z
Cl Cl1 0.114907 0.676724 0.332801
Cl Cl2 0.114907 0.323276 0.832801
Cl Cl3 0.532189 0.109277 0.324131
Cl Cl4 0.532189 0.890723 0.824131
Cl Cl5 0.961821 0.177153 0.492122
Cl Cl6 0.961822 0.822847 0.992122
Cl Cl7 0.968687 0.816203 0.659963
Cl Cl8 0.968687 0.183798 0.159963
Cl Cl9 0.531625 0.397008 0.653072
Cl Cl10 0.531625 0.602992 0.153072
C C1 0.358249 0.725623 0.421526
C C2 0.358250 0.274377 0.921526
C C3 0.541036 0.917683 0.416909
C C4 0.541036 0.082316 0.916909
C C5 0.543036 0.602683 0.563769
C C6 0.543036 0.397317 0.063768
C C7 0.734086 0.947693 0.492192
C C8 0.734087 0.052307 0.992192
C C9 0.737384 0.786761 0.567790
C C10 0.737384 0.213239 0.067790
N N1 0.361978 0.575492 0.492894
N N2 0.361978 0.424508 0.992894
loop_
_atom_site_aniso_label
_atom_site_aniso_U_11
_atom_site_aniso_U_22
_atom_site_aniso_U_33
_atom_site_aniso_U_23
_atom_site_aniso_U_13
_atom_site_aniso_U_12
# Additional Data for U_Aniso: 80.000000
Cl1 0.011650 0.015773 0.010354 -0.001172 -0.001901 -0.001543
Cl2 0.011650 0.015773 0.010354 0.001171 -0.001901 0.001543
Cl3 0.015396 0.014018 0.010400 0.003710 0.001662 -0.000646
Cl4 0.015396 0.014018 0.010400 -0.003710 0.001662 0.000646
Cl5 0.010583 0.010690 0.014071 -0.001289 0.003003 -0.002939
Cl6 0.010583 0.010690 0.014071 0.001289 0.003003 0.002939
Cl7 0.011409 0.016999 0.010292 -0.000393 -0.002086 -0.000747
Cl8 0.011409 0.016999 0.010292 0.000393 -0.002086 0.000747
Cl9 0.016264 0.013014 0.010331 0.003082 0.002471 -0.000840
Cl10 0.016264 0.013014 0.010331 -0.003082 0.002471 0.000841
C1 0.009305 0.010474 0.008488 -0.000285 0.000528 -0.001048
C2 0.009305 0.010474 0.008488 0.000285 0.000528 0.001048
C3 0.009623 0.009881 0.008507 0.000534 0.001182 -0.000600
C4 0.009623 0.009881 0.008507 -0.000534 0.001182 0.000600
C5 0.010236 0.009829 0.008502 0.000443 0.001251 -0.000798
C6 0.010236 0.009829 0.008502 -0.000443 0.001251 0.000798
C7 0.008880 0.009288 0.009227 -0.000306 0.001314 -0.001030
C8 0.008880 0.009288 0.009227 0.000306 0.001314 0.001030
C9 0.009123 0.010113 0.008505 -0.000257 0.000465 -0.000525
C10 0.009123 0.010113 0.008505 0.000257 0.000465 0.000525
N1 0.010438 0.010871 0.009345 0.000318 0.000819 -0.002403
N2 0.010438 0.010871 0.009345 -0.000318 0.000819 0.002403
#end of data_U.cif_80K

data_U.cif-90K

_audit_creation_method 'generated by Molecular-Toolbox 1.0.1' 
_chemical_formula_sum
'Cl10 C10 N2'

_cell_length_a 5.350524 
_cell_length_b 5.192441 
_cell_length_c 15.058446 
_cell_angle_alpha 89.999991 
_cell_angle_beta 99.578013
_cell_angle_gamma 89.999998

_symmetry_space_group_name_H-M  'P1'

 loop_
_atom_site_type_symbol 
_atom_site_label 
_atom_site_fract_x 
_atom_site_fract_y 
_atom_site_fract_z
Cl Cl1 0.114907 0.676724 0.332801
Cl Cl2 0.114907 0.323276 0.832801
Cl Cl3 0.532189 0.109277 0.324131
Cl Cl4 0.532189 0.890723 0.824131
Cl Cl5 0.961821 0.177153 0.492122
Cl Cl6 0.961822 0.822847 0.992122
Cl Cl7 0.968687 0.816203 0.659963
Cl Cl8 0.968687 0.183798 0.159963
Cl Cl9 0.531625 0.397008 0.653072
Cl Cl10 0.531625 0.602992 0.153072
C C1 0.358249 0.725623 0.421526
C C2 0.358250 0.274377 0.921526
C C3 0.541036 0.917683 0.416909
C C4 0.541036 0.082316 0.916909
C C5 0.543036 0.602683 0.563769
C C6 0.543036 0.397317 0.063768
C C7 0.734086 0.947693 0.492192
C C8 0.734087 0.052307 0.992192
C C9 0.737384 0.786761 0.567790
C C10 0.737384 0.213239 0.067790
N N1 0.361978 0.575492 0.492894
N N2 0.361978 0.424508 0.992894
loop_
_atom_site_aniso_label
_atom_site_aniso_U_11
_atom_site_aniso_U_22
_atom_site_aniso_U_33
_atom_site_aniso_U_23
_atom_site_aniso_U_13
_atom_site_aniso_U_12
# Additional Data for U_Aniso: 90.000000
Cl1 0.012873 0.017460 0.011427 -0.001318 -0.002123 -0.001713
Cl2 0.012873 0.017460 0.011427 0.001318 -0.002123 0.001713
Cl3 0.017041 0.015512 0.011485 0.004123 0.001841 -0.000712
Cl4 0.017041 0.015512 0.011485 -0.004123 0.001841 0.000712
Cl5 0.011673 0.011789 0.015566 -0.001460 0.003343 -0.003253
Cl6 0.011673 0.011789 0.015566 0.001460 0.003343 0.003253
Cl7 0.012599 0.018838 0.011364 -0.000450 -0.002332 -0.000820
Cl8 0.012599 0.018838 0.011364 0.000450 -0.002332 0.000820
Cl9 0.018015 0.014387 0.011400 0.003415 0.002742 -0.000929
Cl10 0.018015 0.014387 0.011400 -0.003415 0.002742 0.000929
C1 0.010170 0.011457 0.009286 -0.000370 0.000601 -0.001108
C2 0.010170 0.011457 0.009286 0.000370 0.000601 0.001108
C3 0.010519 0.010779 0.009303 0.000542 0.001343 -0.000589
C4 0.010519 0.010779 0.009303 -0.000542 0.001343 0.000589
C5 0.011213 0.010736 0.009300 0.000444 0.001410 -0.000828
C6 0.011213 0.010736 0.009300 -0.000444 0.001410 0.000828
C7 0.009690 0.010124 0.010118 -0.000400 0.001488 -0.001081
C8 0.009690 0.010124 0.010118 0.000400 0.001488 0.001081
C9 0.009953 0.011043 0.009300 -0.000350 0.000536 -0.000507
C10 0.009953 0.011043 0.009300 0.000350 0.000536 0.000507
N1 0.011407 0.011859 0.010251 0.000281 0.000951 -0.002617
N2 0.011407 0.011859 0.010251 -0.000281 0.000951 0.002617
#end of data_U.cif_90K

data_U.cif-100K

_audit_creation_method 'generated by Molecular-Toolbox 1.0.1' 
_chemical_formula_sum
'Cl10 C10 N2'

_cell_length_a 5.350524 
_cell_length_b 5.192441 
_cell_length_c 15.058446 
_cell_angle_alpha 89.999991 
_cell_angle_beta 99.578013
_cell_angle_gamma 89.999998

_symmetry_space_group_name_H-M  'P1'

 loop_
_atom_site_type_symbol 
_atom_site_label 
_atom_site_fract_x 
_atom_site_fract_y 
_atom_site_fract_z
Cl Cl1 0.114907 0.676724 0.332801
Cl Cl2 0.114907 0.323276 0.832801
Cl Cl3 0.532189 0.109277 0.324131
Cl Cl4 0.532189 0.890723 0.824131
Cl Cl5 0.961821 0.177153 0.492122
Cl Cl6 0.961822 0.822847 0.992122
Cl Cl7 0.968687 0.816203 0.659963
Cl Cl8 0.968687 0.183798 0.159963
Cl Cl9 0.531625 0.397008 0.653072
Cl Cl10 0.531625 0.602992 0.153072
C C1 0.358249 0.725623 0.421526
C C2 0.358250 0.274377 0.921526
C C3 0.541036 0.917683 0.416909
C C4 0.541036 0.082316 0.916909
C C5 0.543036 0.602683 0.563769
C C6 0.543036 0.397317 0.063768
C C7 0.734086 0.947693 0.492192
C C8 0.734087 0.052307 0.992192
C C9 0.737384 0.786761 0.567790
C C10 0.737384 0.213239 0.067790
N N1 0.361978 0.575492 0.492894
N N2 0.361978 0.424508 0.992894
loop_
_atom_site_aniso_label
_atom_site_aniso_U_11
_atom_site_aniso_U_22
_atom_site_aniso_U_33
_atom_site_aniso_U_23
_atom_site_aniso_U_13
_atom_site_aniso_U_12
# Additional Data for U_Aniso: 100.000000
Cl1 0.014109 0.019168 0.012511 -0.001464 -0.002351 -0.001885
Cl2 0.014109 0.019168 0.012511 0.001464 -0.002351 0.001885
Cl3 0.018706 0.017023 0.012582 0.004543 0.002019 -0.000781
Cl4 0.018706 0.017023 0.012582 -0.004543 0.002019 0.000781
Cl5 0.012778 0.012903 0.017078 -0.001630 0.003685 -0.003574
Cl6 0.012778 0.012903 0.017078 0.001630 0.003685 0.003574
Cl7 0.013803 0.020698 0.012446 -0.000504 -0.002584 -0.000896
Cl8 0.013803 0.020698 0.012446 0.000504 -0.002584 0.000896
Cl9 0.019787 0.015777 0.012481 0.003756 0.003015 -0.001021
Cl10 0.019787 0.015777 0.012481 -0.003756 0.003015 0.001021
C1 0.011044 0.012450 0.010090 -0.000453 0.000674 -0.001172
C2 0.011044 0.012450 0.010090 0.000453 0.000674 0.001172
C3 0.011423 0.011686 0.010106 0.000551 0.001504 -0.000582
C4 0.011423 0.011686 0.010106 -0.000551 0.001504 0.000582
C5 0.012198 0.011652 0.010105 0.000449 0.001568 -0.000860
C6 0.012198 0.011652 0.010105 -0.000449 0.001568 0.000860
C7 0.010507 0.010969 0.011016 -0.000491 0.001660 -0.001136
C8 0.010507 0.010969 0.011016 0.000491 0.001660 0.001136
C9 0.010793 0.011983 0.010102 -0.000441 0.000605 -0.000491
C10 0.010793 0.011983 0.010102 0.000441 0.000605 0.000491
N1 0.012388 0.012862 0.011167 0.000249 0.001079 -0.002839
N2 0.012388 0.012862 0.011167 -0.000249 0.001079 0.002839
#end of data_U.cif_100K

data_U.cif-110K

_audit_creation_method 'generated by Molecular-Toolbox 1.0.1' 
_chemical_formula_sum
'Cl10 C10 N2'

_cell_length_a 5.350524 
_cell_length_b 5.192441 
_cell_length_c 15.058446 
_cell_angle_alpha 89.999991 
_cell_angle_beta 99.578013
_cell_angle_gamma 89.999998

_symmetry_space_group_name_H-M  'P1'

 loop_
_atom_site_type_symbol 
_atom_site_label 
_atom_site_fract_x 
_atom_site_fract_y 
_atom_site_fract_z
Cl Cl1 0.114907 0.676724 0.332801
Cl Cl2 0.114907 0.323276 0.832801
Cl Cl3 0.532189 0.109277 0.324131
Cl Cl4 0.532189 0.890723 0.824131
Cl Cl5 0.961821 0.177153 0.492122
Cl Cl6 0.961822 0.822847 0.992122
Cl Cl7 0.968687 0.816203 0.659963
Cl Cl8 0.968687 0.183798 0.159963
Cl Cl9 0.531625 0.397008 0.653072
Cl Cl10 0.531625 0.602992 0.153072
C C1 0.358249 0.725623 0.421526
C C2 0.358250 0.274377 0.921526
C C3 0.541036 0.917683 0.416909
C C4 0.541036 0.082316 0.916909
C C5 0.543036 0.602683 0.563769
C C6 0.543036 0.397317 0.063768
C C7 0.734086 0.947693 0.492192
C C8 0.734087 0.052307 0.992192
C C9 0.737384 0.786761 0.567790
C C10 0.737384 0.213239 0.067790
N N1 0.361978 0.575492 0.492894
N N2 0.361978 0.424508 0.992894
loop_
_atom_site_aniso_label
_atom_site_aniso_U_11
_atom_site_aniso_U_22
_atom_site_aniso_U_33
_atom_site_aniso_U_23
_atom_site_aniso_U_13
_atom_site_aniso_U_12
# Additional Data for U_Aniso: 110.000000
Cl1 0.015357 0.020893 0.013606 -0.001611 -0.002583 -0.002062
Cl2 0.015357 0.020893 0.013606 0.001611 -0.002583 0.002062
Cl3 0.020387 0.018549 0.013687 0.004967 0.002198 -0.000852
Cl4 0.020387 0.018549 0.013687 -0.004967 0.002198 0.000852
Cl5 0.013893 0.014029 0.018603 -0.001797 0.004029 -0.003900
Cl6 0.013893 0.014029 0.018603 0.001797 0.004029 0.003900
Cl7 0.015019 0.022574 0.013538 -0.000557 -0.002837 -0.000975
Cl8 0.015019 0.022574 0.013538 0.000557 -0.002837 0.000975
Cl9 0.021574 0.017180 0.013572 0.004102 0.003289 -0.001115
Cl10 0.021574 0.017180 0.013572 -0.004102 0.003289 0.001115
C1 0.011924 0.013451 0.010899 -0.000534 0.000745 -0.001238
C2 0.011924 0.013451 0.010899 0.000534 0.000745 0.001238
C3 0.012334 0.012601 0.010913 0.000563 0.001664 -0.000578
C4 0.012334 0.012601 0.010913 -0.000563 0.001664 0.000578
C5 0.013190 0.012575 0.010915 0.000455 0.001726 -0.000896
C6 0.013190 0.012575 0.010915 -0.000455 0.001726 0.000896
C7 0.011331 0.011822 0.011920 -0.000581 0.001832 -0.001192
C8 0.011331 0.011822 0.011920 0.000581 0.001832 0.001192
C9 0.011639 0.012930 0.010909 -0.000530 0.000673 -0.000478
C10 0.011639 0.012930 0.010909 0.000530 0.000673 0.000478
N1 0.013379 0.013875 0.012090 0.000222 0.001206 -0.003067
N2 0.013379 0.013875 0.012090 -0.000222 0.001206 0.003067
#end of data_U.cif_110K

data_U.cif-120K

_audit_creation_method 'generated by Molecular-Toolbox 1.0.1' 
_chemical_formula_sum
'Cl10 C10 N2'

_cell_length_a 5.350524 
_cell_length_b 5.192441 
_cell_length_c 15.058446 
_cell_angle_alpha 89.999991 
_cell_angle_beta 99.578013
_cell_angle_gamma 89.999998

_symmetry_space_group_name_H-M  'P1'

 loop_
_atom_site_type_symbol 
_atom_site_label 
_atom_site_fract_x 
_atom_site_fract_y 
_atom_site_fract_z
Cl Cl1 0.114907 0.676724 0.332801
Cl Cl2 0.114907 0.323276 0.832801
Cl Cl3 0.532189 0.109277 0.324131
Cl Cl4 0.532189 0.890723 0.824131
Cl Cl5 0.961821 0.177153 0.492122
Cl Cl6 0.961822 0.822847 0.992122
Cl Cl7 0.968687 0.816203 0.659963
Cl Cl8 0.968687 0.183798 0.159963
Cl Cl9 0.531625 0.397008 0.653072
Cl Cl10 0.531625 0.602992 0.153072
C C1 0.358249 0.725623 0.421526
C C2 0.358250 0.274377 0.921526
C C3 0.541036 0.917683 0.416909
C C4 0.541036 0.082316 0.916909
C C5 0.543036 0.602683 0.563769
C C6 0.543036 0.397317 0.063768
C C7 0.734086 0.947693 0.492192
C C8 0.734087 0.052307 0.992192
C C9 0.737384 0.786761 0.567790
C C10 0.737384 0.213239 0.067790
N N1 0.361978 0.575492 0.492894
N N2 0.361978 0.424508 0.992894
loop_
_atom_site_aniso_label
_atom_site_aniso_U_11
_atom_site_aniso_U_22
_atom_site_aniso_U_33
_atom_site_aniso_U_23
_atom_site_aniso_U_13
_atom_site_aniso_U_12
# Additional Data for U_Aniso: 120.000000
Cl1 0.016613 0.022630 0.014709 -0.001756 -0.002817 -0.002240
Cl2 0.016613 0.022630 0.014709 0.001756 -0.002817 0.002240
Cl3 0.022079 0.020085 0.014800 0.005396 0.002377 -0.000923
Cl4 0.022079 0.020085 0.014800 -0.005396 0.002377 0.000923
Cl5 0.015017 0.015163 0.020139 -0.001965 0.004373 -0.004231
Cl6 0.015017 0.015163 0.020139 0.001965 0.004373 0.004231
Cl7 0.016244 0.024463 0.014638 -0.000610 -0.003095 -0.001055
Cl8 0.016244 0.024463 0.014638 0.000610 -0.003095 0.001055
Cl9 0.023373 0.018594 0.014671 0.004453 0.003565 -0.001210
Cl10 0.023373 0.018594 0.014671 -0.004453 0.003565 0.001210
C1 0.012810 0.014458 0.011712 -0.000614 0.000815 -0.001305
C2 0.012810 0.014458 0.011712 0.000614 0.000815 0.001305
C3 0.013250 0.013523 0.011724 0.000576 0.001823 -0.000576
C4 0.013250 0.013523 0.011724 -0.000576 0.001823 0.000576
C5 0.014188 0.013504 0.011730 0.000463 0.001883 -0.000934
C6 0.014188 0.013504 0.011730 -0.000463 0.001883 0.000934
C7 0.012161 0.012681 0.012826 -0.000668 0.002003 -0.001251
C8 0.012161 0.012681 0.012826 0.000668 0.002003 0.001251
C9 0.012491 0.013884 0.011721 -0.000617 0.000740 -0.000468
C10 0.012491 0.013884 0.011721 0.000617 0.000740 0.000468
N1 0.014376 0.014898 0.013019 0.000196 0.001330 -0.003299
N2 0.014376 0.014898 0.013019 -0.000196 0.001330 0.003299
#end of data_U.cif_120K

data_U.cif-130K

_audit_creation_method 'generated by Molecular-Toolbox 1.0.1' 
_chemical_formula_sum
'Cl10 C10 N2'

_cell_length_a 5.350524 
_cell_length_b 5.192441 
_cell_length_c 15.058446 
_cell_angle_alpha 89.999991 
_cell_angle_beta 99.578013
_cell_angle_gamma 89.999998

_symmetry_space_group_name_H-M  'P1'

 loop_
_atom_site_type_symbol 
_atom_site_label 
_atom_site_fract_x 
_atom_site_fract_y 
_atom_site_fract_z
Cl Cl1 0.114907 0.676724 0.332801
Cl Cl2 0.114907 0.323276 0.832801
Cl Cl3 0.532189 0.109277 0.324131
Cl Cl4 0.532189 0.890723 0.824131
Cl Cl5 0.961821 0.177153 0.492122
Cl Cl6 0.961822 0.822847 0.992122
Cl Cl7 0.968687 0.816203 0.659963
Cl Cl8 0.968687 0.183798 0.159963
Cl Cl9 0.531625 0.397008 0.653072
Cl Cl10 0.531625 0.602992 0.153072
C C1 0.358249 0.725623 0.421526
C C2 0.358250 0.274377 0.921526
C C3 0.541036 0.917683 0.416909
C C4 0.541036 0.082316 0.916909
C C5 0.543036 0.602683 0.563769
C C6 0.543036 0.397317 0.063768
C C7 0.734086 0.947693 0.492192
C C8 0.734087 0.052307 0.992192
C C9 0.737384 0.786761 0.567790
C C10 0.737384 0.213239 0.067790
N N1 0.361978 0.575492 0.492894
N N2 0.361978 0.424508 0.992894
loop_
_atom_site_aniso_label
_atom_site_aniso_U_11
_atom_site_aniso_U_22
_atom_site_aniso_U_33
_atom_site_aniso_U_23
_atom_site_aniso_U_13
_atom_site_aniso_U_12
# Additional Data for U_Aniso: 130.000000
Cl1 0.017877 0.024377 0.015817 -0.001902 -0.003053 -0.002419
Cl2 0.017877 0.024377 0.015817 0.001902 -0.003053 0.002419
Cl3 0.023781 0.021630 0.015919 0.005828 0.002557 -0.000997
Cl4 0.023781 0.021630 0.015919 -0.005828 0.002557 0.000997
Cl5 0.016147 0.016305 0.021684 -0.002131 0.004717 -0.004564
Cl6 0.016147 0.016305 0.021684 0.002131 0.004717 0.004564
Cl7 0.017476 0.026363 0.015743 -0.000662 -0.003353 -0.001137
Cl8 0.017476 0.026363 0.015743 0.000662 -0.003353 0.001137
Cl9 0.025183 0.020016 0.015776 0.004806 0.003842 -0.001307
Cl10 0.025183 0.020016 0.015776 -0.004806 0.003842 0.001307
C1 0.013698 0.015471 0.012529 -0.000693 0.000884 -0.001376
C2 0.013698 0.015471 0.012529 0.000693 0.000884 0.001376
C3 0.014172 0.014451 0.012540 0.000591 0.001980 -0.000576
C4 0.014172 0.014451 0.012540 -0.000591 0.001980 0.000576
C5 0.015191 0.014438 0.012549 0.000473 0.002040 -0.000973
C6 0.015191 0.014438 0.012549 -0.000473 0.002040 0.000973
C7 0.012994 0.013544 0.013736 -0.000755 0.002173 -0.001313
C8 0.012994 0.013544 0.013736 0.000755 0.002173 0.001313
C9 0.013348 0.014843 0.012537 -0.000702 0.000807 -0.000459
C10 0.013348 0.014843 0.012537 0.000702 0.000807 0.000459
N1 0.015380 0.015929 0.013952 0.000175 0.001452 -0.003535
N2 0.015380 0.015929 0.013952 -0.000175 0.001452 0.003535
#end of data_U.cif_130K

data_U.cif-140K

_audit_creation_method 'generated by Molecular-Toolbox 1.0.1' 
_chemical_formula_sum
'Cl10 C10 N2'

_cell_length_a 5.350524 
_cell_length_b 5.192441 
_cell_length_c 15.058446 
_cell_angle_alpha 89.999991 
_cell_angle_beta 99.578013
_cell_angle_gamma 89.999998

_symmetry_space_group_name_H-M  'P1'

 loop_
_atom_site_type_symbol 
_atom_site_label 
_atom_site_fract_x 
_atom_site_fract_y 
_atom_site_fract_z
Cl Cl1 0.114907 0.676724 0.332801
Cl Cl2 0.114907 0.323276 0.832801
Cl Cl3 0.532189 0.109277 0.324131
Cl Cl4 0.532189 0.890723 0.824131
Cl Cl5 0.961821 0.177153 0.492122
Cl Cl6 0.961822 0.822847 0.992122
Cl Cl7 0.968687 0.816203 0.659963
Cl Cl8 0.968687 0.183798 0.159963
Cl Cl9 0.531625 0.397008 0.653072
Cl Cl10 0.531625 0.602992 0.153072
C C1 0.358249 0.725623 0.421526
C C2 0.358250 0.274377 0.921526
C C3 0.541036 0.917683 0.416909
C C4 0.541036 0.082316 0.916909
C C5 0.543036 0.602683 0.563769
C C6 0.543036 0.397317 0.063768
C C7 0.734086 0.947693 0.492192
C C8 0.734087 0.052307 0.992192
C C9 0.737384 0.786761 0.567790
C C10 0.737384 0.213239 0.067790
N N1 0.361978 0.575492 0.492894
N N2 0.361978 0.424508 0.992894
loop_
_atom_site_aniso_label
_atom_site_aniso_U_11
_atom_site_aniso_U_22
_atom_site_aniso_U_33
_atom_site_aniso_U_23
_atom_site_aniso_U_13
_atom_site_aniso_U_12
# Additional Data for U_Aniso: 140.000000
Cl1 0.019148 0.026132 0.016932 -0.002048 -0.003290 -0.002600
Cl2 0.019148 0.026132 0.016932 0.002048 -0.003290 0.002600
Cl3 0.025491 0.023182 0.017043 0.006261 0.002737 -0.001071
Cl4 0.025491 0.023182 0.017043 -0.006261 0.002737 0.001071
Cl5 0.017285 0.017453 0.023236 -0.002298 0.005063 -0.004901
Cl6 0.017285 0.017453 0.023236 0.002298 0.005063 0.004901
Cl7 0.018715 0.028270 0.016854 -0.000714 -0.003614 -0.001220
Cl8 0.018715 0.028270 0.016854 0.000714 -0.003614 0.001220
Cl9 0.027000 0.021445 0.016888 0.005161 0.004119 -0.001404
Cl10 0.027000 0.021445 0.016888 -0.005161 0.004119 0.001404
C1 0.014592 0.016487 0.013350 -0.000770 0.000953 -0.001447
C2 0.014592 0.016487 0.013350 0.000770 0.000953 0.001447
C3 0.015097 0.015384 0.013359 0.000608 0.002137 -0.000578
C4 0.015097 0.015384 0.013359 -0.000608 0.002137 0.000578
C5 0.016198 0.015377 0.013370 0.000483 0.002196 -0.001014
C6 0.016198 0.015377 0.013370 -0.000483 0.002196 0.001014
C7 0.013832 0.014413 0.014650 -0.000840 0.002342 -0.001376
C8 0.013832 0.014413 0.014650 0.000840 0.002342 0.001376
C9 0.014210 0.015807 0.013356 -0.000786 0.000873 -0.000454
C10 0.014210 0.015807 0.013356 0.000786 0.000873 0.000454
N1 0.016391 0.016967 0.014890 0.000155 0.001573 -0.003775
N2 0.016391 0.016967 0.014890 -0.000155 0.001573 0.003775
#end of data_U.cif_140K

data_U.cif-150K

_audit_creation_method 'generated by Molecular-Toolbox 1.0.1' 
_chemical_formula_sum
'Cl10 C10 N2'

_cell_length_a 5.350524 
_cell_length_b 5.192441 
_cell_length_c 15.058446 
_cell_angle_alpha 89.999991 
_cell_angle_beta 99.578013
_cell_angle_gamma 89.999998

_symmetry_space_group_name_H-M  'P1'

 loop_
_atom_site_type_symbol 
_atom_site_label 
_atom_site_fract_x 
_atom_site_fract_y 
_atom_site_fract_z
Cl Cl1 0.114907 0.676724 0.332801
Cl Cl2 0.114907 0.323276 0.832801
Cl Cl3 0.532189 0.109277 0.324131
Cl Cl4 0.532189 0.890723 0.824131
Cl Cl5 0.961821 0.177153 0.492122
Cl Cl6 0.961822 0.822847 0.992122
Cl Cl7 0.968687 0.816203 0.659963
Cl Cl8 0.968687 0.183798 0.159963
Cl Cl9 0.531625 0.397008 0.653072
Cl Cl10 0.531625 0.602992 0.153072
C C1 0.358249 0.725623 0.421526
C C2 0.358250 0.274377 0.921526
C C3 0.541036 0.917683 0.416909
C C4 0.541036 0.082316 0.916909
C C5 0.543036 0.602683 0.563769
C C6 0.543036 0.397317 0.063768
C C7 0.734086 0.947693 0.492192
C C8 0.734087 0.052307 0.992192
C C9 0.737384 0.786761 0.567790
C C10 0.737384 0.213239 0.067790
N N1 0.361978 0.575492 0.492894
N N2 0.361978 0.424508 0.992894
loop_
_atom_site_aniso_label
_atom_site_aniso_U_11
_atom_site_aniso_U_22
_atom_site_aniso_U_33
_atom_site_aniso_U_23
_atom_site_aniso_U_13
_atom_site_aniso_U_12
# Additional Data for U_Aniso: 150.000000
Cl1 0.020423 0.027894 0.018050 -0.002194 -0.003529 -0.002781
Cl2 0.020423 0.027894 0.018050 0.002194 -0.003529 0.002781
Cl3 0.027208 0.024740 0.018172 0.006696 0.002918 -0.001146
Cl4 0.027208 0.024740 0.018172 -0.006696 0.002918 0.001146
Cl5 0.018426 0.018606 0.024794 -0.002463 0.005409 -0.005238
Cl6 0.018426 0.018606 0.024794 0.002463 0.005409 0.005238
Cl7 0.019959 0.030184 0.017969 -0.000766 -0.003874 -0.001303
Cl8 0.019959 0.030184 0.017969 0.000766 -0.003874 0.001303
Cl9 0.028825 0.022879 0.018004 0.005517 0.004397 -0.001502
Cl10 0.028825 0.022879 0.018004 -0.005518 0.004397 0.001502
C1 0.015489 0.017508 0.014173 -0.000846 0.001021 -0.001521
C2 0.015489 0.017508 0.014173 0.000846 0.001021 0.001521
C3 0.016026 0.016321 0.014181 0.000626 0.002292 -0.000583
C4 0.016026 0.016321 0.014181 -0.000626 0.002292 0.000583
C5 0.017209 0.016319 0.014194 0.000496 0.002352 -0.001056
C6 0.017209 0.016319 0.014194 -0.000496 0.002352 0.001056
C7 0.014674 0.015285 0.015566 -0.000923 0.002510 -0.001441
C8 0.014674 0.015285 0.015566 0.000923 0.002510 0.001441
C9 0.015076 0.016775 0.014177 -0.000868 0.000937 -0.000450
C10 0.015076 0.016775 0.014177 0.000868 0.000937 0.000450
N1 0.017406 0.018011 0.015830 0.000137 0.001692 -0.004018
N2 0.017406 0.018011 0.015830 -0.000138 0.001692 0.004018
#end of data_U.cif_150K

data_U.cif-160K

_audit_creation_method 'generated by Molecular-Toolbox 1.0.1' 
_chemical_formula_sum
'Cl10 C10 N2'

_cell_length_a 5.350524 
_cell_length_b 5.192441 
_cell_length_c 15.058446 
_cell_angle_alpha 89.999991 
_cell_angle_beta 99.578013
_cell_angle_gamma 89.999998

_symmetry_space_group_name_H-M  'P1'

 loop_
_atom_site_type_symbol 
_atom_site_label 
_atom_site_fract_x 
_atom_site_fract_y 
_atom_site_fract_z
Cl Cl1 0.114907 0.676724 0.332801
Cl Cl2 0.114907 0.323276 0.832801
Cl Cl3 0.532189 0.109277 0.324131
Cl Cl4 0.532189 0.890723 0.824131
Cl Cl5 0.961821 0.177153 0.492122
Cl Cl6 0.961822 0.822847 0.992122
Cl Cl7 0.968687 0.816203 0.659963
Cl Cl8 0.968687 0.183798 0.159963
Cl Cl9 0.531625 0.397008 0.653072
Cl Cl10 0.531625 0.602992 0.153072
C C1 0.358249 0.725623 0.421526
C C2 0.358250 0.274377 0.921526
C C3 0.541036 0.917683 0.416909
C C4 0.541036 0.082316 0.916909
C C5 0.543036 0.602683 0.563769
C C6 0.543036 0.397317 0.063768
C C7 0.734086 0.947693 0.492192
C C8 0.734087 0.052307 0.992192
C C9 0.737384 0.786761 0.567790
C C10 0.737384 0.213239 0.067790
N N1 0.361978 0.575492 0.492894
N N2 0.361978 0.424508 0.992894
loop_
_atom_site_aniso_label
_atom_site_aniso_U_11
_atom_site_aniso_U_22
_atom_site_aniso_U_33
_atom_site_aniso_U_23
_atom_site_aniso_U_13
_atom_site_aniso_U_12
# Additional Data for U_Aniso: 160.000000
Cl1 0.021702 0.029661 0.019174 -0.002339 -0.003768 -0.002962
Cl2 0.021702 0.029661 0.019174 0.002339 -0.003768 0.002962
Cl3 0.028931 0.026303 0.019305 0.007133 0.003100 -0.001220
Cl4 0.028931 0.026303 0.019305 -0.007133 0.003100 0.001220
Cl5 0.019574 0.019764 0.026358 -0.002629 0.005757 -0.005577
Cl6 0.019574 0.019764 0.026358 0.002629 0.005757 0.005577
Cl7 0.021207 0.032104 0.019088 -0.000818 -0.004136 -0.001387
Cl8 0.021207 0.032104 0.019088 0.000818 -0.004136 0.001387
Cl9 0.030655 0.024319 0.019123 0.005877 0.004676 -0.001599
Cl10 0.030655 0.024319 0.019123 -0.005877 0.004676 0.001599
C1 0.016388 0.018533 0.014998 -0.000922 0.001088 -0.001595
C2 0.016388 0.018533 0.014998 0.000922 0.001088 0.001595
C3 0.016958 0.017262 0.015005 0.000645 0.002447 -0.000589
C4 0.016958 0.017262 0.015005 -0.000645 0.002447 0.000589
C5 0.018222 0.017265 0.015021 0.000509 0.002507 -0.001100
C6 0.018222 0.017265 0.015021 -0.000509 0.002507 0.001100
C7 0.015518 0.016161 0.016485 -0.001006 0.002678 -0.001507
C8 0.015518 0.016161 0.016485 0.001006 0.002678 0.001507
C9 0.015944 0.017747 0.015001 -0.000948 0.001001 -0.000447
C10 0.015944 0.017747 0.015001 0.000948 0.001001 0.000447
N1 0.018426 0.019059 0.016775 0.000122 0.001810 -0.004263
N2 0.018426 0.019059 0.016775 -0.000122 0.001810 0.004263
#end of data_U.cif_160K

data_U.cif-170K

_audit_creation_method 'generated by Molecular-Toolbox 1.0.1' 
_chemical_formula_sum
'Cl10 C10 N2'

_cell_length_a 5.350524 
_cell_length_b 5.192441 
_cell_length_c 15.058446 
_cell_angle_alpha 89.999991 
_cell_angle_beta 99.578013
_cell_angle_gamma 89.999998

_symmetry_space_group_name_H-M  'P1'

 loop_
_atom_site_type_symbol 
_atom_site_label 
_atom_site_fract_x 
_atom_site_fract_y 
_atom_site_fract_z
Cl Cl1 0.114907 0.676724 0.332801
Cl Cl2 0.114907 0.323276 0.832801
Cl Cl3 0.532189 0.109277 0.324131
Cl Cl4 0.532189 0.890723 0.824131
Cl Cl5 0.961821 0.177153 0.492122
Cl Cl6 0.961822 0.822847 0.992122
Cl Cl7 0.968687 0.816203 0.659963
Cl Cl8 0.968687 0.183798 0.159963
Cl Cl9 0.531625 0.397008 0.653072
Cl Cl10 0.531625 0.602992 0.153072
C C1 0.358249 0.725623 0.421526
C C2 0.358250 0.274377 0.921526
C C3 0.541036 0.917683 0.416909
C C4 0.541036 0.082316 0.916909
C C5 0.543036 0.602683 0.563769
C C6 0.543036 0.397317 0.063768
C C7 0.734086 0.947693 0.492192
C C8 0.734087 0.052307 0.992192
C C9 0.737384 0.786761 0.567790
C C10 0.737384 0.213239 0.067790
N N1 0.361978 0.575492 0.492894
N N2 0.361978 0.424508 0.992894
loop_
_atom_site_aniso_label
_atom_site_aniso_U_11
_atom_site_aniso_U_22
_atom_site_aniso_U_33
_atom_site_aniso_U_23
_atom_site_aniso_U_13
_atom_site_aniso_U_12
# Additional Data for U_Aniso: 170.000000
Cl1 0.022984 0.031434 0.020299 -0.002485 -0.004009 -0.003144
Cl2 0.022984 0.031434 0.020299 0.002485 -0.004009 0.003144
Cl3 0.030658 0.027870 0.020440 0.007572 0.003281 -0.001294
Cl4 0.030658 0.027870 0.020440 -0.007572 0.003281 0.001294
Cl5 0.020723 0.020925 0.027926 -0.002795 0.006104 -0.005917
Cl6 0.020723 0.020925 0.027926 0.002795 0.006104 0.005917
Cl7 0.022459 0.034029 0.020211 -0.000869 -0.004399 -0.001471
Cl8 0.022459 0.034029 0.020211 0.000869 -0.004399 0.001471
Cl9 0.032489 0.025762 0.020246 0.006236 0.004956 -0.001697
Cl10 0.032489 0.025762 0.020246 -0.006236 0.004956 0.001697
C1 0.017291 0.019560 0.015825 -0.000997 0.001154 -0.001670
C2 0.017291 0.019560 0.015825 0.000997 0.001154 0.001670
C3 0.017893 0.018207 0.015831 0.000665 0.002601 -0.000596
C4 0.017893 0.018207 0.015831 -0.000665 0.002601 0.000596
C5 0.019238 0.018214 0.015849 0.000523 0.002662 -0.001145
C6 0.019238 0.018214 0.015849 -0.000523 0.002662 0.001145
C7 0.016365 0.017040 0.017405 -0.001087 0.002845 -0.001575
C8 0.016365 0.017040 0.017405 0.001087 0.002845 0.001575
C9 0.016815 0.018723 0.015827 -0.001028 0.001065 -0.000446
C10 0.016815 0.018723 0.015827 0.001028 0.001065 0.000446
N1 0.019449 0.020113 0.017721 0.000108 0.001927 -0.004510
N2 0.019449 0.020113 0.017721 -0.000108 0.001927 0.004510
#end of data_U.cif_170K

data_U.cif-180K

_audit_creation_method 'generated by Molecular-Toolbox 1.0.1' 
_chemical_formula_sum
'Cl10 C10 N2'

_cell_length_a 5.350524 
_cell_length_b 5.192441 
_cell_length_c 15.058446 
_cell_angle_alpha 89.999991 
_cell_angle_beta 99.578013
_cell_angle_gamma 89.999998

_symmetry_space_group_name_H-M  'P1'

 loop_
_atom_site_type_symbol 
_atom_site_label 
_atom_site_fract_x 
_atom_site_fract_y 
_atom_site_fract_z
Cl Cl1 0.114907 0.676724 0.332801
Cl Cl2 0.114907 0.323276 0.832801
Cl Cl3 0.532189 0.109277 0.324131
Cl Cl4 0.532189 0.890723 0.824131
Cl Cl5 0.961821 0.177153 0.492122
Cl Cl6 0.961822 0.822847 0.992122
Cl Cl7 0.968687 0.816203 0.659963
Cl Cl8 0.968687 0.183798 0.159963
Cl Cl9 0.531625 0.397008 0.653072
Cl Cl10 0.531625 0.602992 0.153072
C C1 0.358249 0.725623 0.421526
C C2 0.358250 0.274377 0.921526
C C3 0.541036 0.917683 0.416909
C C4 0.541036 0.082316 0.916909
C C5 0.543036 0.602683 0.563769
C C6 0.543036 0.397317 0.063768
C C7 0.734086 0.947693 0.492192
C C8 0.734087 0.052307 0.992192
C C9 0.737384 0.786761 0.567790
C C10 0.737384 0.213239 0.067790
N N1 0.361978 0.575492 0.492894
N N2 0.361978 0.424508 0.992894
loop_
_atom_site_aniso_label
_atom_site_aniso_U_11
_atom_site_aniso_U_22
_atom_site_aniso_U_33
_atom_site_aniso_U_23
_atom_site_aniso_U_13
_atom_site_aniso_U_12
# Additional Data for U_Aniso: 180.000000
Cl1 0.024270 0.033210 0.021429 -0.002631 -0.004248 -0.003328
Cl2 0.024270 0.033210 0.021429 0.002631 -0.004248 0.003328
Cl3 0.032388 0.029441 0.021579 0.008010 0.003464 -0.001369
Cl4 0.032388 0.029441 0.021579 -0.008010 0.003464 0.001369
Cl5 0.021876 0.022090 0.029496 -0.002959 0.006452 -0.006258
Cl6 0.021876 0.022090 0.029496 0.002959 0.006452 0.006258
Cl7 0.023713 0.035958 0.021335 -0.000920 -0.004662 -0.001556
Cl8 0.023713 0.035958 0.021335 0.000920 -0.004662 0.001556
Cl9 0.034327 0.027209 0.021373 0.006596 0.005236 -0.001796
Cl10 0.034327 0.027209 0.021373 -0.006596 0.005236 0.001796
C1 0.018196 0.020591 0.016654 -0.001071 0.001220 -0.001747
C2 0.018196 0.020591 0.016654 0.001071 0.001220 0.001747
C3 0.018831 0.019154 0.016659 0.000687 0.002754 -0.000605
C4 0.018831 0.019154 0.016659 -0.000687 0.002754 0.000605
C5 0.020257 0.019165 0.016680 0.000538 0.002817 -0.001190
C6 0.020257 0.019165 0.016680 -0.000538 0.002817 0.001190
C7 0.017214 0.017922 0.018327 -0.001167 0.003011 -0.001644
C8 0.017214 0.017922 0.018327 0.001167 0.003011 0.001644
C9 0.017690 0.019701 0.016654 -0.001108 0.001127 -0.000447
C10 0.017690 0.019701 0.016654 0.001108 0.001127 0.000447
N1 0.020476 0.021170 0.018670 0.000095 0.002043 -0.004759
N2 0.020476 0.021170 0.018670 -0.000095 0.002043 0.004759
#end of data_U.cif_180K

data_U.cif-190K

_audit_creation_method 'generated by Molecular-Toolbox 1.0.1' 
_chemical_formula_sum
'Cl10 C10 N2'

_cell_length_a 5.350524 
_cell_length_b 5.192441 
_cell_length_c 15.058446 
_cell_angle_alpha 89.999991 
_cell_angle_beta 99.578013
_cell_angle_gamma 89.999998

_symmetry_space_group_name_H-M  'P1'

 loop_
_atom_site_type_symbol 
_atom_site_label 
_atom_site_fract_x 
_atom_site_fract_y 
_atom_site_fract_z
Cl Cl1 0.114907 0.676724 0.332801
Cl Cl2 0.114907 0.323276 0.832801
Cl Cl3 0.532189 0.109277 0.324131
Cl Cl4 0.532189 0.890723 0.824131
Cl Cl5 0.961821 0.177153 0.492122
Cl Cl6 0.961822 0.822847 0.992122
Cl Cl7 0.968687 0.816203 0.659963
Cl Cl8 0.968687 0.183798 0.159963
Cl Cl9 0.531625 0.397008 0.653072
Cl Cl10 0.531625 0.602992 0.153072
C C1 0.358249 0.725623 0.421526
C C2 0.358250 0.274377 0.921526
C C3 0.541036 0.917683 0.416909
C C4 0.541036 0.082316 0.916909
C C5 0.543036 0.602683 0.563769
C C6 0.543036 0.397317 0.063768
C C7 0.734086 0.947693 0.492192
C C8 0.734087 0.052307 0.992192
C C9 0.737384 0.786761 0.567790
C C10 0.737384 0.213239 0.067790
N N1 0.361978 0.575492 0.492894
N N2 0.361978 0.424508 0.992894
loop_
_atom_site_aniso_label
_atom_site_aniso_U_11
_atom_site_aniso_U_22
_atom_site_aniso_U_33
_atom_site_aniso_U_23
_atom_site_aniso_U_13
_atom_site_aniso_U_12
# Additional Data for U_Aniso: 190.000000
Cl1 0.025559 0.034990 0.022561 -0.002776 -0.004488 -0.003510
Cl2 0.025559 0.034990 0.022561 0.002776 -0.004488 0.003510
Cl3 0.034123 0.031014 0.022720 0.008449 0.003647 -0.001445
Cl4 0.034123 0.031014 0.022720 -0.008449 0.003647 0.001445
Cl5 0.023032 0.023257 0.031071 -0.003125 0.006800 -0.006600
Cl6 0.023032 0.023257 0.031071 0.003125 0.006800 0.006600
Cl7 0.024971 0.037890 0.022463 -0.000971 -0.004924 -0.001640
Cl8 0.024971 0.037890 0.022463 0.000971 -0.004924 0.001640
Cl9 0.036169 0.028658 0.022501 0.006958 0.005517 -0.001894
Cl10 0.036169 0.028658 0.022501 -0.006958 0.005517 0.001894
C1 0.019101 0.021624 0.017485 -0.001145 0.001286 -0.001825
C2 0.019101 0.021624 0.017485 0.001145 0.001286 0.001825
C3 0.019771 0.020104 0.017489 0.000709 0.002907 -0.000615
C4 0.019771 0.020104 0.017489 -0.000709 0.002907 0.000615
C5 0.021278 0.020119 0.017512 0.000554 0.002971 -0.001237
C6 0.021278 0.020119 0.017512 -0.000554 0.002971 0.001237
C7 0.018066 0.018806 0.019251 -0.001247 0.003178 -0.001715
C8 0.018066 0.018806 0.019251 0.001247 0.003178 0.001715
C9 0.018566 0.020682 0.017483 -0.001185 0.001189 -0.000449
C10 0.018566 0.020682 0.017483 0.001185 0.001189 0.000449
N1 0.021506 0.022230 0.019620 0.000083 0.002159 -0.005008
N2 0.021506 0.022230 0.019620 -0.000083 0.002159 0.005008
#end of data_U.cif_190K

data_U.cif-200K

_audit_creation_method 'generated by Molecular-Toolbox 1.0.1' 
_chemical_formula_sum
'Cl10 C10 N2'

_cell_length_a 5.350524 
_cell_length_b 5.192441 
_cell_length_c 15.058446 
_cell_angle_alpha 89.999991 
_cell_angle_beta 99.578013
_cell_angle_gamma 89.999998

_symmetry_space_group_name_H-M  'P1'

 loop_
_atom_site_type_symbol 
_atom_site_label 
_atom_site_fract_x 
_atom_site_fract_y 
_atom_site_fract_z
Cl Cl1 0.114907 0.676724 0.332801
Cl Cl2 0.114907 0.323276 0.832801
Cl Cl3 0.532189 0.109277 0.324131
Cl Cl4 0.532189 0.890723 0.824131
Cl Cl5 0.961821 0.177153 0.492122
Cl Cl6 0.961822 0.822847 0.992122
Cl Cl7 0.968687 0.816203 0.659963
Cl Cl8 0.968687 0.183798 0.159963
Cl Cl9 0.531625 0.397008 0.653072
Cl Cl10 0.531625 0.602992 0.153072
C C1 0.358249 0.725623 0.421526
C C2 0.358250 0.274377 0.921526
C C3 0.541036 0.917683 0.416909
C C4 0.541036 0.082316 0.916909
C C5 0.543036 0.602683 0.563769
C C6 0.543036 0.397317 0.063768
C C7 0.734086 0.947693 0.492192
C C8 0.734087 0.052307 0.992192
C C9 0.737384 0.786761 0.567790
C C10 0.737384 0.213239 0.067790
N N1 0.361978 0.575492 0.492894
N N2 0.361978 0.424508 0.992894
loop_
_atom_site_aniso_label
_atom_site_aniso_U_11
_atom_site_aniso_U_22
_atom_site_aniso_U_33
_atom_site_aniso_U_23
_atom_site_aniso_U_13
_atom_site_aniso_U_12
# Additional Data for U_Aniso: 200.000000
Cl1 0.026850 0.036772 0.023695 -0.002922 -0.004729 -0.003693
Cl2 0.026850 0.036772 0.023695 0.002922 -0.004729 0.003693
Cl3 0.035860 0.032590 0.023863 0.008890 0.003830 -0.001520
Cl4 0.035860 0.032590 0.023863 -0.008890 0.003830 0.001520
Cl5 0.024190 0.024426 0.032649 -0.003290 0.007149 -0.006942
Cl6 0.024190 0.024426 0.032649 0.003290 0.007149 0.006942
Cl7 0.026231 0.039825 0.023593 -0.001023 -0.005187 -0.001726
Cl8 0.026231 0.039825 0.023593 0.001023 -0.005187 0.001726
Cl9 0.038014 0.030111 0.023632 0.007319 0.005798 -0.001993
Cl10 0.038014 0.030111 0.023632 -0.007319 0.005798 0.001993
C1 0.020010 0.022659 0.018317 -0.001218 0.001352 -0.001904
C2 0.020010 0.022659 0.018317 0.001218 0.001352 0.001904
C3 0.020713 0.021057 0.018320 0.000732 0.003059 -0.000627
C4 0.020713 0.021057 0.018320 -0.000732 0.003059 0.000627
C5 0.022300 0.021075 0.018345 0.000571 0.003125 -0.001285
C6 0.022300 0.021075 0.018345 -0.000571 0.003125 0.001285
C7 0.018919 0.019693 0.020176 -0.001327 0.003343 -0.001786
C8 0.018919 0.019693 0.020176 0.001327 0.003343 0.001786
C9 0.019445 0.021666 0.018315 -0.001262 0.001251 -0.000452
C10 0.019445 0.021666 0.018315 0.001262 0.001251 0.000452
N1 0.022537 0.023294 0.020573 0.000073 0.002274 -0.005259
N2 0.022537 0.023294 0.020573 -0.000073 0.002274 0.005259
#end of data_U.cif_200K

data_U.cif-210K

_audit_creation_method 'generated by Molecular-Toolbox 1.0.1' 
_chemical_formula_sum
'Cl10 C10 N2'

_cell_length_a 5.350524 
_cell_length_b 5.192441 
_cell_length_c 15.058446 
_cell_angle_alpha 89.999991 
_cell_angle_beta 99.578013
_cell_angle_gamma 89.999998

_symmetry_space_group_name_H-M  'P1'

 loop_
_atom_site_type_symbol 
_atom_site_label 
_atom_site_fract_x 
_atom_site_fract_y 
_atom_site_fract_z
Cl Cl1 0.114907 0.676724 0.332801
Cl Cl2 0.114907 0.323276 0.832801
Cl Cl3 0.532189 0.109277 0.324131
Cl Cl4 0.532189 0.890723 0.824131
Cl Cl5 0.961821 0.177153 0.492122
Cl Cl6 0.961822 0.822847 0.992122
Cl Cl7 0.968687 0.816203 0.659963
Cl Cl8 0.968687 0.183798 0.159963
Cl Cl9 0.531625 0.397008 0.653072
Cl Cl10 0.531625 0.602992 0.153072
C C1 0.358249 0.725623 0.421526
C C2 0.358250 0.274377 0.921526
C C3 0.541036 0.917683 0.416909
C C4 0.541036 0.082316 0.916909
C C5 0.543036 0.602683 0.563769
C C6 0.543036 0.397317 0.063768
C C7 0.734086 0.947693 0.492192
C C8 0.734087 0.052307 0.992192
C C9 0.737384 0.786761 0.567790
C C10 0.737384 0.213239 0.067790
N N1 0.361978 0.575492 0.492894
N N2 0.361978 0.424508 0.992894
loop_
_atom_site_aniso_label
_atom_site_aniso_U_11
_atom_site_aniso_U_22
_atom_site_aniso_U_33
_atom_site_aniso_U_23
_atom_site_aniso_U_13
_atom_site_aniso_U_12
# Additional Data for U_Aniso: 210.000000
Cl1 0.028143 0.038557 0.024831 -0.003068 -0.004970 -0.003876
Cl2 0.028143 0.038557 0.024831 0.003068 -0.004970 0.003876
Cl3 0.037599 0.034169 0.025009 0.009330 0.004013 -0.001596
Cl4 0.037599 0.034169 0.025009 -0.009330 0.004013 0.001596
Cl5 0.025350 0.025598 0.034228 -0.003455 0.007499 -0.007285
Cl6 0.025350 0.025598 0.034228 0.003455 0.007499 0.007285
Cl7 0.027493 0.041763 0.024724 -0.001074 -0.005451 -0.001811
Cl8 0.027493 0.041763 0.024724 0.001074 -0.005451 0.001811
Cl9 0.039861 0.031565 0.024765 0.007681 0.006080 -0.002092
Cl10 0.039861 0.031565 0.024765 -0.007681 0.006080 0.002092
C1 0.020920 0.023696 0.019151 -0.001291 0.001416 -0.001983
C2 0.020920 0.023696 0.019151 0.001291 0.001416 0.001983
C3 0.021657 0.022012 0.019152 0.000756 0.003210 -0.000640
C4 0.021657 0.022012 0.019152 -0.000756 0.003210 0.000640
C5 0.023325 0.022034 0.019180 0.000588 0.003279 -0.001333
C6 0.023325 0.022034 0.019180 -0.000588 0.003279 0.001333
C7 0.019775 0.020582 0.021103 -0.001405 0.003508 -0.001858
C8 0.019775 0.020582 0.021103 0.001405 0.003508 0.001858
C9 0.020325 0.022652 0.019147 -0.001338 0.001312 -0.000456
C10 0.020325 0.022652 0.019147 0.001339 0.001312 0.000456
N1 0.023573 0.024361 0.021527 0.000063 0.002388 -0.005511
N2 0.023573 0.024361 0.021527 -0.000063 0.002388 0.005511
#end of data_U.cif_210K

data_U.cif-220K

_audit_creation_method 'generated by Molecular-Toolbox 1.0.1' 
_chemical_formula_sum
'Cl10 C10 N2'

_cell_length_a 5.350524 
_cell_length_b 5.192441 
_cell_length_c 15.058446 
_cell_angle_alpha 89.999991 
_cell_angle_beta 99.578013
_cell_angle_gamma 89.999998

_symmetry_space_group_name_H-M  'P1'

 loop_
_atom_site_type_symbol 
_atom_site_label 
_atom_site_fract_x 
_atom_site_fract_y 
_atom_site_fract_z
Cl Cl1 0.114907 0.676724 0.332801
Cl Cl2 0.114907 0.323276 0.832801
Cl Cl3 0.532189 0.109277 0.324131
Cl Cl4 0.532189 0.890723 0.824131
Cl Cl5 0.961821 0.177153 0.492122
Cl Cl6 0.961822 0.822847 0.992122
Cl Cl7 0.968687 0.816203 0.659963
Cl Cl8 0.968687 0.183798 0.159963
Cl Cl9 0.531625 0.397008 0.653072
Cl Cl10 0.531625 0.602992 0.153072
C C1 0.358249 0.725623 0.421526
C C2 0.358250 0.274377 0.921526
C C3 0.541036 0.917683 0.416909
C C4 0.541036 0.082316 0.916909
C C5 0.543036 0.602683 0.563769
C C6 0.543036 0.397317 0.063768
C C7 0.734086 0.947693 0.492192
C C8 0.734087 0.052307 0.992192
C C9 0.737384 0.786761 0.567790
C C10 0.737384 0.213239 0.067790
N N1 0.361978 0.575492 0.492894
N N2 0.361978 0.424508 0.992894
loop_
_atom_site_aniso_label
_atom_site_aniso_U_11
_atom_site_aniso_U_22
_atom_site_aniso_U_33
_atom_site_aniso_U_23
_atom_site_aniso_U_13
_atom_site_aniso_U_12
# Additional Data for U_Aniso: 220.000000
Cl1 0.029438 0.040345 0.025968 -0.003213 -0.005211 -0.004060
Cl2 0.029438 0.040345 0.025968 0.003213 -0.005211 0.004060
Cl3 0.039341 0.035749 0.026156 0.009771 0.004197 -0.001672
Cl4 0.039341 0.035749 0.026156 -0.009771 0.004197 0.001672
Cl5 0.026511 0.026772 0.035811 -0.003620 0.007848 -0.007629
Cl6 0.026511 0.026772 0.035811 0.003620 0.007848 0.007629
Cl7 0.028757 0.043703 0.025857 -0.001125 -0.005715 -0.001896
Cl8 0.028757 0.043703 0.025857 0.001125 -0.005715 0.001896
Cl9 0.041711 0.033022 0.025899 0.008044 0.006361 -0.002192
Cl10 0.041711 0.033022 0.025899 -0.008044 0.006361 0.002192
C1 0.021832 0.024735 0.019985 -0.001363 0.001480 -0.002062
C2 0.021832 0.024735 0.019985 0.001363 0.001480 0.002062
C3 0.022603 0.022970 0.019986 0.000780 0.003361 -0.000654
C4 0.022603 0.022970 0.019986 -0.000780 0.003361 0.000654
C5 0.024353 0.022993 0.020016 0.000606 0.003433 -0.001381
C6 0.024353 0.022993 0.020016 -0.000606 0.003433 0.001381
C7 0.020631 0.021472 0.022031 -0.001483 0.003673 -0.001931
C8 0.020631 0.021472 0.022031 0.001483 0.003673 0.001931
C9 0.021208 0.023640 0.019981 -0.001414 0.001373 -0.000461
C10 0.021208 0.023640 0.019981 0.001414 0.001373 0.000461
N1 0.024610 0.025430 0.022483 0.000054 0.002502 -0.005764
N2 0.024610 0.025430 0.022483 -0.000054 0.002502 0.005764
#end of data_U.cif_220K

data_U.cif-230K

_audit_creation_method 'generated by Molecular-Toolbox 1.0.1' 
_chemical_formula_sum
'Cl10 C10 N2'

_cell_length_a 5.350524 
_cell_length_b 5.192441 
_cell_length_c 15.058446 
_cell_angle_alpha 89.999991 
_cell_angle_beta 99.578013
_cell_angle_gamma 89.999998

_symmetry_space_group_name_H-M  'P1'

 loop_
_atom_site_type_symbol 
_atom_site_label 
_atom_site_fract_x 
_atom_site_fract_y 
_atom_site_fract_z
Cl Cl1 0.114907 0.676724 0.332801
Cl Cl2 0.114907 0.323276 0.832801
Cl Cl3 0.532189 0.109277 0.324131
Cl Cl4 0.532189 0.890723 0.824131
Cl Cl5 0.961821 0.177153 0.492122
Cl Cl6 0.961822 0.822847 0.992122
Cl Cl7 0.968687 0.816203 0.659963
Cl Cl8 0.968687 0.183798 0.159963
Cl Cl9 0.531625 0.397008 0.653072
Cl Cl10 0.531625 0.602992 0.153072
C C1 0.358249 0.725623 0.421526
C C2 0.358250 0.274377 0.921526
C C3 0.541036 0.917683 0.416909
C C4 0.541036 0.082316 0.916909
C C5 0.543036 0.602683 0.563769
C C6 0.543036 0.397317 0.063768
C C7 0.734086 0.947693 0.492192
C C8 0.734087 0.052307 0.992192
C C9 0.737384 0.786761 0.567790
C C10 0.737384 0.213239 0.067790
N N1 0.361978 0.575492 0.492894
N N2 0.361978 0.424508 0.992894
loop_
_atom_site_aniso_label
_atom_site_aniso_U_11
_atom_site_aniso_U_22
_atom_site_aniso_U_33
_atom_site_aniso_U_23
_atom_site_aniso_U_13
_atom_site_aniso_U_12
# Additional Data for U_Aniso: 230.000000
Cl1 0.030734 0.042134 0.027108 -0.003359 -0.005452 -0.004244
Cl2 0.030734 0.042134 0.027108 0.003359 -0.005452 0.004244
Cl3 0.041086 0.037331 0.027304 0.010212 0.004381 -0.001746
Cl4 0.041086 0.037331 0.027304 -0.010212 0.004381 0.001746
Cl5 0.027675 0.027947 0.037395 -0.003784 0.008198 -0.007972
Cl6 0.027675 0.027947 0.037395 0.003784 0.008198 0.007972
Cl7 0.030023 0.045645 0.026992 -0.001176 -0.005978 -0.001982
Cl8 0.030023 0.045645 0.026992 0.001176 -0.005978 0.001982
Cl9 0.043563 0.034480 0.027035 0.008407 0.006643 -0.002291
Cl10 0.043563 0.034480 0.027035 -0.008407 0.006643 0.002291
C1 0.022746 0.025777 0.020821 -0.001433 0.001545 -0.002143
C2 0.022746 0.025777 0.020821 0.001433 0.001545 0.002143
C3 0.023551 0.023929 0.020822 0.000805 0.003512 -0.000667
C4 0.023551 0.023929 0.020822 -0.000805 0.003512 0.000667
C5 0.025380 0.023955 0.020853 0.000624 0.003586 -0.001431
C6 0.025380 0.023955 0.020853 -0.000624 0.003586 0.001431
C7 0.021490 0.022364 0.022960 -0.001561 0.003838 -0.002005
C8 0.021490 0.022364 0.022960 0.001561 0.003838 0.002005
C9 0.022092 0.024630 0.020816 -0.001489 0.001433 -0.000466
C10 0.022092 0.024630 0.020816 0.001489 0.001433 0.000466
N1 0.025649 0.026502 0.023440 0.000045 0.002615 -0.006018
N2 0.025649 0.026502 0.023440 -0.000045 0.002615 0.006018
#end of data_U.cif_230K

data_U.cif-240K

_audit_creation_method 'generated by Molecular-Toolbox 1.0.1' 
_chemical_formula_sum
'Cl10 C10 N2'

_cell_length_a 5.350524 
_cell_length_b 5.192441 
_cell_length_c 15.058446 
_cell_angle_alpha 89.999991 
_cell_angle_beta 99.578013
_cell_angle_gamma 89.999998

_symmetry_space_group_name_H-M  'P1'

 loop_
_atom_site_type_symbol 
_atom_site_label 
_atom_site_fract_x 
_atom_site_fract_y 
_atom_site_fract_z
Cl Cl1 0.114907 0.676724 0.332801
Cl Cl2 0.114907 0.323276 0.832801
Cl Cl3 0.532189 0.109277 0.324131
Cl Cl4 0.532189 0.890723 0.824131
Cl Cl5 0.961821 0.177153 0.492122
Cl Cl6 0.961822 0.822847 0.992122
Cl Cl7 0.968687 0.816203 0.659963
Cl Cl8 0.968687 0.183798 0.159963
Cl Cl9 0.531625 0.397008 0.653072
Cl Cl10 0.531625 0.602992 0.153072
C C1 0.358249 0.725623 0.421526
C C2 0.358250 0.274377 0.921526
C C3 0.541036 0.917683 0.416909
C C4 0.541036 0.082316 0.916909
C C5 0.543036 0.602683 0.563769
C C6 0.543036 0.397317 0.063768
C C7 0.734086 0.947693 0.492192
C C8 0.734087 0.052307 0.992192
C C9 0.737384 0.786761 0.567790
C C10 0.737384 0.213239 0.067790
N N1 0.361978 0.575492 0.492894
N N2 0.361978 0.424508 0.992894
loop_
_atom_site_aniso_label
_atom_site_aniso_U_11
_atom_site_aniso_U_22
_atom_site_aniso_U_33
_atom_site_aniso_U_23
_atom_site_aniso_U_13
_atom_site_aniso_U_12
# Additional Data for U_Aniso: 240.000000
Cl1 0.032032 0.043925 0.028249 -0.003505 -0.005692 -0.004427
Cl2 0.032032 0.043925 0.028249 0.003505 -0.005692 0.004427
Cl3 0.042831 0.038915 0.028454 0.010654 0.004566 -0.001822
Cl4 0.042831 0.038915 0.028454 -0.010654 0.004566 0.001822
Cl5 0.028840 0.029123 0.038979 -0.003950 0.008548 -0.008316
Cl6 0.028840 0.029123 0.038979 0.003950 0.008548 0.008316
Cl7 0.031290 0.047588 0.028129 -0.001228 -0.006241 -0.002067
Cl8 0.031290 0.047588 0.028129 0.001228 -0.006241 0.002067
Cl9 0.045415 0.035940 0.028173 0.008770 0.006925 -0.002389
Cl10 0.045415 0.035940 0.028173 -0.008770 0.006925 0.002389
C1 0.023661 0.026819 0.021658 -0.001505 0.001608 -0.002224
C2 0.023661 0.026819 0.021658 0.001505 0.001608 0.002224
C3 0.024499 0.024890 0.021658 0.000832 0.003662 -0.000683
C4 0.024499 0.024890 0.021658 -0.000832 0.003662 0.000683
C5 0.026410 0.024918 0.021691 0.000643 0.003738 -0.001481
C6 0.026410 0.024918 0.021691 -0.000643 0.003738 0.001481
C7 0.022350 0.023258 0.023890 -0.001638 0.004002 -0.002079
C8 0.022350 0.023258 0.023890 0.001638 0.004002 0.002079
C9 0.022977 0.025621 0.021652 -0.001563 0.001493 -0.000473
C10 0.022977 0.025621 0.021652 0.001563 0.001493 0.000473
N1 0.026690 0.027575 0.024398 0.000038 0.002728 -0.006272
N2 0.026690 0.027575 0.024398 -0.000038 0.002728 0.006272
#end of data_U.cif_240K

data_U.cif-250K

_audit_creation_method 'generated by Molecular-Toolbox 1.0.1' 
_chemical_formula_sum
'Cl10 C10 N2'

_cell_length_a 5.350524 
_cell_length_b 5.192441 
_cell_length_c 15.058446 
_cell_angle_alpha 89.999991 
_cell_angle_beta 99.578013
_cell_angle_gamma 89.999998

_symmetry_space_group_name_H-M  'P1'

 loop_
_atom_site_type_symbol 
_atom_site_label 
_atom_site_fract_x 
_atom_site_fract_y 
_atom_site_fract_z
Cl Cl1 0.114907 0.676724 0.332801
Cl Cl2 0.114907 0.323276 0.832801
Cl Cl3 0.532189 0.109277 0.324131
Cl Cl4 0.532189 0.890723 0.824131
Cl Cl5 0.961821 0.177153 0.492122
Cl Cl6 0.961822 0.822847 0.992122
Cl Cl7 0.968687 0.816203 0.659963
Cl Cl8 0.968687 0.183798 0.159963
Cl Cl9 0.531625 0.397008 0.653072
Cl Cl10 0.531625 0.602992 0.153072
C C1 0.358249 0.725623 0.421526
C C2 0.358250 0.274377 0.921526
C C3 0.541036 0.917683 0.416909
C C4 0.541036 0.082316 0.916909
C C5 0.543036 0.602683 0.563769
C C6 0.543036 0.397317 0.063768
C C7 0.734086 0.947693 0.492192
C C8 0.734087 0.052307 0.992192
C C9 0.737384 0.786761 0.567790
C C10 0.737384 0.213239 0.067790
N N1 0.361978 0.575492 0.492894
N N2 0.361978 0.424508 0.992894
loop_
_atom_site_aniso_label
_atom_site_aniso_U_11
_atom_site_aniso_U_22
_atom_site_aniso_U_33
_atom_site_aniso_U_23
_atom_site_aniso_U_13
_atom_site_aniso_U_12
# Additional Data for U_Aniso: 250.000000
Cl1 0.033331 0.045718 0.029390 -0.003651 -0.005933 -0.004612
Cl2 0.033331 0.045718 0.029390 0.003651 -0.005933 0.004612
Cl3 0.044578 0.040500 0.029605 0.011095 0.004750 -0.001899
Cl4 0.044578 0.040500 0.029605 -0.011095 0.004750 0.001899
Cl5 0.030007 0.030301 0.040567 -0.004114 0.008898 -0.008660
Cl6 0.030007 0.030301 0.040567 0.004114 0.008898 0.008660
Cl7 0.032558 0.049533 0.029265 -0.001278 -0.006505 -0.002153
Cl8 0.032558 0.049533 0.029265 0.001278 -0.006505 0.002153
Cl9 0.047270 0.037401 0.029311 0.009133 0.007208 -0.002489
Cl10 0.047270 0.037401 0.029311 -0.009133 0.007208 0.002489
C1 0.024576 0.027864 0.022497 -0.001576 0.001671 -0.002306
C2 0.024576 0.027864 0.022497 0.001576 0.001671 0.002306
C3 0.025450 0.025852 0.022495 0.000858 0.003812 -0.000698
C4 0.025450 0.025852 0.022495 -0.000858 0.003812 0.000698
C5 0.027442 0.025883 0.022530 0.000662 0.003892 -0.001532
C6 0.027442 0.025883 0.022530 -0.000662 0.003892 0.001532
C7 0.023211 0.024154 0.024821 -0.001715 0.004166 -0.002155
C8 0.023211 0.024154 0.024821 0.001715 0.004166 0.002155
C9 0.023864 0.026615 0.022489 -0.001637 0.001552 -0.000479
C10 0.023864 0.026615 0.022489 0.001637 0.001552 0.000479
N1 0.027732 0.028651 0.025357 0.000030 0.002840 -0.006527
N2 0.027732 0.028651 0.025357 -0.000030 0.002840 0.006527
#end of data_U.cif_250K

data_U.cif-260K

_audit_creation_method 'generated by Molecular-Toolbox 1.0.1' 
_chemical_formula_sum
'Cl10 C10 N2'

_cell_length_a 5.350524 
_cell_length_b 5.192441 
_cell_length_c 15.058446 
_cell_angle_alpha 89.999991 
_cell_angle_beta 99.578013
_cell_angle_gamma 89.999998

_symmetry_space_group_name_H-M  'P1'

 loop_
_atom_site_type_symbol 
_atom_site_label 
_atom_site_fract_x 
_atom_site_fract_y 
_atom_site_fract_z
Cl Cl1 0.114907 0.676724 0.332801
Cl Cl2 0.114907 0.323276 0.832801
Cl Cl3 0.532189 0.109277 0.324131
Cl Cl4 0.532189 0.890723 0.824131
Cl Cl5 0.961821 0.177153 0.492122
Cl Cl6 0.961822 0.822847 0.992122
Cl Cl7 0.968687 0.816203 0.659963
Cl Cl8 0.968687 0.183798 0.159963
Cl Cl9 0.531625 0.397008 0.653072
Cl Cl10 0.531625 0.602992 0.153072
C C1 0.358249 0.725623 0.421526
C C2 0.358250 0.274377 0.921526
C C3 0.541036 0.917683 0.416909
C C4 0.541036 0.082316 0.916909
C C5 0.543036 0.602683 0.563769
C C6 0.543036 0.397317 0.063768
C C7 0.734086 0.947693 0.492192
C C8 0.734087 0.052307 0.992192
C C9 0.737384 0.786761 0.567790
C C10 0.737384 0.213239 0.067790
N N1 0.361978 0.575492 0.492894
N N2 0.361978 0.424508 0.992894
loop_
_atom_site_aniso_label
_atom_site_aniso_U_11
_atom_site_aniso_U_22
_atom_site_aniso_U_33
_atom_site_aniso_U_23
_atom_site_aniso_U_13
_atom_site_aniso_U_12
# Additional Data for U_Aniso: 260.000000
Cl1 0.034632 0.047511 0.030534 -0.003797 -0.006174 -0.004795
Cl2 0.034632 0.047511 0.030534 0.003797 -0.006174 0.004795
Cl3 0.046326 0.042086 0.030757 0.011537 0.004935 -0.001974
Cl4 0.046326 0.042086 0.030757 -0.011537 0.004935 0.001974
Cl5 0.031174 0.031480 0.042155 -0.004279 0.009249 -0.009005
Cl6 0.031174 0.031480 0.042155 0.004279 0.009249 0.009005
Cl7 0.033828 0.051480 0.030404 -0.001329 -0.006769 -0.002238
Cl8 0.033828 0.051480 0.030404 0.001329 -0.006769 0.002238
Cl9 0.049126 0.038864 0.030451 0.009497 0.007490 -0.002589
Cl10 0.049126 0.038864 0.030451 -0.009497 0.007491 0.002589
C1 0.025493 0.028909 0.023335 -0.001646 0.001735 -0.002389
C2 0.025493 0.028909 0.023335 0.001646 0.001735 0.002389
C3 0.026401 0.026816 0.023333 0.000884 0.003962 -0.000715
C4 0.026401 0.026816 0.023333 -0.000884 0.003962 0.000715
C5 0.028473 0.026849 0.023370 0.000682 0.004044 -0.001583
C6 0.028473 0.026849 0.023370 -0.000682 0.004044 0.001583
C7 0.024073 0.025051 0.025753 -0.001790 0.004330 -0.002230
C8 0.024073 0.025051 0.025753 0.001790 0.004330 0.002230
C9 0.024752 0.027609 0.023327 -0.001711 0.001611 -0.000488
C10 0.024752 0.027609 0.023327 0.001711 0.001611 0.000488
N1 0.028777 0.029729 0.026317 0.000024 0.002953 -0.006782
N2 0.028777 0.029729 0.026317 -0.000024 0.002953 0.006782
#end of data_U.cif_260K

data_U.cif-270K

_audit_creation_method 'generated by Molecular-Toolbox 1.0.1' 
_chemical_formula_sum
'Cl10 C10 N2'

_cell_length_a 5.350524 
_cell_length_b 5.192441 
_cell_length_c 15.058446 
_cell_angle_alpha 89.999991 
_cell_angle_beta 99.578013
_cell_angle_gamma 89.999998

_symmetry_space_group_name_H-M  'P1'

 loop_
_atom_site_type_symbol 
_atom_site_label 
_atom_site_fract_x 
_atom_site_fract_y 
_atom_site_fract_z
Cl Cl1 0.114907 0.676724 0.332801
Cl Cl2 0.114907 0.323276 0.832801
Cl Cl3 0.532189 0.109277 0.324131
Cl Cl4 0.532189 0.890723 0.824131
Cl Cl5 0.961821 0.177153 0.492122
Cl Cl6 0.961822 0.822847 0.992122
Cl Cl7 0.968687 0.816203 0.659963
Cl Cl8 0.968687 0.183798 0.159963
Cl Cl9 0.531625 0.397008 0.653072
Cl Cl10 0.531625 0.602992 0.153072
C C1 0.358249 0.725623 0.421526
C C2 0.358250 0.274377 0.921526
C C3 0.541036 0.917683 0.416909
C C4 0.541036 0.082316 0.916909
C C5 0.543036 0.602683 0.563769
C C6 0.543036 0.397317 0.063768
C C7 0.734086 0.947693 0.492192
C C8 0.734087 0.052307 0.992192
C C9 0.737384 0.786761 0.567790
C C10 0.737384 0.213239 0.067790
N N1 0.361978 0.575492 0.492894
N N2 0.361978 0.424508 0.992894
loop_
_atom_site_aniso_label
_atom_site_aniso_U_11
_atom_site_aniso_U_22
_atom_site_aniso_U_33
_atom_site_aniso_U_23
_atom_site_aniso_U_13
_atom_site_aniso_U_12
# Additional Data for U_Aniso: 270.000000
Cl1 0.035933 0.049307 0.031677 -0.003943 -0.006415 -0.004979
Cl2 0.035933 0.049307 0.031677 0.003943 -0.006415 0.004979
Cl3 0.048076 0.043674 0.031909 0.011980 0.005119 -0.002050
Cl4 0.048076 0.043674 0.031909 -0.011980 0.005119 0.002050
Cl5 0.032342 0.032661 0.043744 -0.004444 0.009599 -0.009350
Cl6 0.032342 0.032661 0.043744 0.004444 0.009599 0.009350
Cl7 0.035098 0.053427 0.031544 -0.001381 -0.007032 -0.002324
Cl8 0.035098 0.053427 0.031544 0.001381 -0.007032 0.002324
Cl9 0.050983 0.040327 0.031593 0.009860 0.007773 -0.002687
Cl10 0.050983 0.040327 0.031593 -0.009860 0.007773 0.002687
C1 0.026411 0.029956 0.024175 -0.001717 0.001797 -0.002472
C2 0.026411 0.029956 0.024175 0.001717 0.001797 0.002472
C3 0.027355 0.027781 0.024173 0.000911 0.004113 -0.000731
C4 0.027355 0.027781 0.024173 -0.000911 0.004113 0.000731
C5 0.029508 0.027817 0.024211 0.000702 0.004197 -0.001635
C6 0.029508 0.027817 0.024211 -0.000702 0.004197 0.001635
C7 0.024937 0.025949 0.026687 -0.001866 0.004494 -0.002307
C8 0.024937 0.025949 0.026687 0.001866 0.004494 0.002307
C9 0.025642 0.028605 0.024166 -0.001784 0.001670 -0.000496
C10 0.025642 0.028605 0.024166 0.001784 0.001670 0.000496
N1 0.029823 0.030808 0.027278 0.000017 0.003065 -0.007039
N2 0.029823 0.030808 0.027278 -0.000017 0.003065 0.007039
#end of data_U.cif_270K

data_U.cif-280K

_audit_creation_method 'generated by Molecular-Toolbox 1.0.1' 
_chemical_formula_sum
'Cl10 C10 N2'

_cell_length_a 5.350524 
_cell_length_b 5.192441 
_cell_length_c 15.058446 
_cell_angle_alpha 89.999991 
_cell_angle_beta 99.578013
_cell_angle_gamma 89.999998

_symmetry_space_group_name_H-M  'P1'

 loop_
_atom_site_type_symbol 
_atom_site_label 
_atom_site_fract_x 
_atom_site_fract_y 
_atom_site_fract_z
Cl Cl1 0.114907 0.676724 0.332801
Cl Cl2 0.114907 0.323276 0.832801
Cl Cl3 0.532189 0.109277 0.324131
Cl Cl4 0.532189 0.890723 0.824131
Cl Cl5 0.961821 0.177153 0.492122
Cl Cl6 0.961822 0.822847 0.992122
Cl Cl7 0.968687 0.816203 0.659963
Cl Cl8 0.968687 0.183798 0.159963
Cl Cl9 0.531625 0.397008 0.653072
Cl Cl10 0.531625 0.602992 0.153072
C C1 0.358249 0.725623 0.421526
C C2 0.358250 0.274377 0.921526
C C3 0.541036 0.917683 0.416909
C C4 0.541036 0.082316 0.916909
C C5 0.543036 0.602683 0.563769
C C6 0.543036 0.397317 0.063768
C C7 0.734086 0.947693 0.492192
C C8 0.734087 0.052307 0.992192
C C9 0.737384 0.786761 0.567790
C C10 0.737384 0.213239 0.067790
N N1 0.361978 0.575492 0.492894
N N2 0.361978 0.424508 0.992894
loop_
_atom_site_aniso_label
_atom_site_aniso_U_11
_atom_site_aniso_U_22
_atom_site_aniso_U_33
_atom_site_aniso_U_23
_atom_site_aniso_U_13
_atom_site_aniso_U_12
# Additional Data for U_Aniso: 280.000000
Cl1 0.037235 0.051103 0.032823 -0.004089 -0.006656 -0.005162
Cl2 0.037235 0.051103 0.032823 0.004089 -0.006656 0.005162
Cl3 0.049827 0.045262 0.033063 0.012422 0.005304 -0.002125
Cl4 0.049827 0.045262 0.033063 -0.012422 0.005304 0.002125
Cl5 0.033511 0.033842 0.045335 -0.004608 0.009949 -0.009694
Cl6 0.033511 0.033842 0.045335 0.004608 0.009949 0.009694
Cl7 0.036369 0.055376 0.032683 -0.001432 -0.007296 -0.002409
Cl8 0.036369 0.055376 0.032683 0.001432 -0.007296 0.002409
Cl9 0.052841 0.041792 0.032734 0.010224 0.008057 -0.002787
Cl10 0.052841 0.041792 0.032734 -0.010224 0.008057 0.002787
C1 0.027331 0.031005 0.025016 -0.001787 0.001860 -0.002555
C2 0.027331 0.031005 0.025016 0.001787 0.001860 0.002555
C3 0.028309 0.028748 0.025013 0.000939 0.004262 -0.000749
C4 0.028309 0.028748 0.025013 -0.000939 0.004262 0.000749
C5 0.030541 0.028785 0.025053 0.000722 0.004350 -0.001687
C6 0.030541 0.028785 0.025053 -0.000722 0.004350 0.001687
C7 0.025802 0.026848 0.027621 -0.001941 0.004657 -0.002383
C8 0.025802 0.026848 0.027621 0.001941 0.004657 0.002383
C9 0.026532 0.029603 0.025006 -0.001856 0.001729 -0.000504
C10 0.026532 0.029603 0.025006 0.001856 0.001729 0.000504
N1 0.030869 0.031888 0.028241 0.000012 0.003177 -0.007294
N2 0.030869 0.031888 0.028241 -0.000012 0.003177 0.007294
#end of data_U.cif_280K

data_U.cif-290K

_audit_creation_method 'generated by Molecular-Toolbox 1.0.1' 
_chemical_formula_sum
'Cl10 C10 N2'

_cell_length_a 5.350524 
_cell_length_b 5.192441 
_cell_length_c 15.058446 
_cell_angle_alpha 89.999991 
_cell_angle_beta 99.578013
_cell_angle_gamma 89.999998

_symmetry_space_group_name_H-M  'P1'

 loop_
_atom_site_type_symbol 
_atom_site_label 
_atom_site_fract_x 
_atom_site_fract_y 
_atom_site_fract_z
Cl Cl1 0.114907 0.676724 0.332801
Cl Cl2 0.114907 0.323276 0.832801
Cl Cl3 0.532189 0.109277 0.324131
Cl Cl4 0.532189 0.890723 0.824131
Cl Cl5 0.961821 0.177153 0.492122
Cl Cl6 0.961822 0.822847 0.992122
Cl Cl7 0.968687 0.816203 0.659963
Cl Cl8 0.968687 0.183798 0.159963
Cl Cl9 0.531625 0.397008 0.653072
Cl Cl10 0.531625 0.602992 0.153072
C C1 0.358249 0.725623 0.421526
C C2 0.358250 0.274377 0.921526
C C3 0.541036 0.917683 0.416909
C C4 0.541036 0.082316 0.916909
C C5 0.543036 0.602683 0.563769
C C6 0.543036 0.397317 0.063768
C C7 0.734086 0.947693 0.492192
C C8 0.734087 0.052307 0.992192
C C9 0.737384 0.786761 0.567790
C C10 0.737384 0.213239 0.067790
N N1 0.361978 0.575492 0.492894
N N2 0.361978 0.424508 0.992894
loop_
_atom_site_aniso_label
_atom_site_aniso_U_11
_atom_site_aniso_U_22
_atom_site_aniso_U_33
_atom_site_aniso_U_23
_atom_site_aniso_U_13
_atom_site_aniso_U_12
# Additional Data for U_Aniso: 290.000000
Cl1 0.038538 0.052900 0.033969 -0.004234 -0.006897 -0.005347
Cl2 0.038538 0.052900 0.033969 0.004234 -0.006897 0.005347
Cl3 0.051578 0.046852 0.034218 0.012864 0.005490 -0.002201
Cl4 0.051578 0.046852 0.034218 -0.012864 0.005490 0.002201
Cl5 0.034682 0.035024 0.046926 -0.004773 0.010300 -0.010039
Cl6 0.034682 0.035024 0.046926 0.004773 0.010300 0.010039
Cl7 0.037642 0.057326 0.033825 -0.001483 -0.007560 -0.002495
Cl8 0.037642 0.057326 0.033825 0.001483 -0.007560 0.002495
Cl9 0.054700 0.043257 0.033877 0.010588 0.008339 -0.002886
Cl10 0.054700 0.043257 0.033877 -0.010588 0.008339 0.002886
C1 0.028251 0.032054 0.025857 -0.001857 0.001923 -0.002638
C2 0.028251 0.032054 0.025857 0.001857 0.001923 0.002638
C3 0.029264 0.029716 0.025854 0.000966 0.004411 -0.000767
C4 0.029264 0.029716 0.025854 -0.000966 0.004411 0.000767
C5 0.031577 0.029755 0.025896 0.000743 0.004502 -0.001740
C6 0.031577 0.029755 0.025896 -0.000743 0.004502 0.001740
C7 0.026667 0.027748 0.028555 -0.002016 0.004820 -0.002460
C8 0.026667 0.027748 0.028555 0.002016 0.004820 0.002460
C9 0.027424 0.030601 0.025846 -0.001929 0.001788 -0.000514
C10 0.027424 0.030601 0.025846 0.001929 0.001788 0.000514
N1 0.031917 0.032970 0.029204 0.000005 0.003288 -0.007550
N2 0.031917 0.032970 0.029204 -0.000005 0.003288 0.007550
#end of data_U.cif_290K

data_U.cif-300K

_audit_creation_method 'generated by Molecular-Toolbox 1.0.1' 
_chemical_formula_sum
'Cl10 C10 N2'

_cell_length_a 5.350524 
_cell_length_b 5.192441 
_cell_length_c 15.058446 
_cell_angle_alpha 89.999991 
_cell_angle_beta 99.578013
_cell_angle_gamma 89.999998

_symmetry_space_group_name_H-M  'P1'

 loop_
_atom_site_type_symbol 
_atom_site_label 
_atom_site_fract_x 
_atom_site_fract_y 
_atom_site_fract_z
Cl Cl1 0.114907 0.676724 0.332801
Cl Cl2 0.114907 0.323276 0.832801
Cl Cl3 0.532189 0.109277 0.324131
Cl Cl4 0.532189 0.890723 0.824131
Cl Cl5 0.961821 0.177153 0.492122
Cl Cl6 0.961822 0.822847 0.992122
Cl Cl7 0.968687 0.816203 0.659963
Cl Cl8 0.968687 0.183798 0.159963
Cl Cl9 0.531625 0.397008 0.653072
Cl Cl10 0.531625 0.602992 0.153072
C C1 0.358249 0.725623 0.421526
C C2 0.358250 0.274377 0.921526
C C3 0.541036 0.917683 0.416909
C C4 0.541036 0.082316 0.916909
C C5 0.543036 0.602683 0.563769
C C6 0.543036 0.397317 0.063768
C C7 0.734086 0.947693 0.492192
C C8 0.734087 0.052307 0.992192
C C9 0.737384 0.786761 0.567790
C C10 0.737384 0.213239 0.067790
N N1 0.361978 0.575492 0.492894
N N2 0.361978 0.424508 0.992894
loop_
_atom_site_aniso_label
_atom_site_aniso_U_11
_atom_site_aniso_U_22
_atom_site_aniso_U_33
_atom_site_aniso_U_23
_atom_site_aniso_U_13
_atom_site_aniso_U_12
# Additional Data for U_Aniso: 300.000000
Cl1 0.039843 0.054698 0.035115 -0.004380 -0.007138 -0.005531
Cl2 0.039843 0.054698 0.035115 0.004380 -0.007138 0.005531
Cl3 0.053331 0.048442 0.035373 0.013306 0.005675 -0.002277
Cl4 0.053331 0.048442 0.035373 -0.013306 0.005675 0.002277
Cl5 0.035853 0.036206 0.048518 -0.004938 0.010651 -0.010384
Cl6 0.035853 0.036206 0.048518 0.004938 0.010651 0.010384
Cl7 0.038914 0.059277 0.034967 -0.001534 -0.007823 -0.002581
Cl8 0.038914 0.059277 0.034967 0.001534 -0.007823 0.002581
Cl9 0.056561 0.044724 0.035020 0.010952 0.008623 -0.002986
Cl10 0.056561 0.044724 0.035020 -0.010952 0.008623 0.002986
C1 0.029172 0.033104 0.026699 -0.001926 0.001986 -0.002722
C2 0.029172 0.033104 0.026699 0.001926 0.001986 0.002722
C3 0.030220 0.030685 0.026695 0.000994 0.004560 -0.000785
C4 0.030220 0.030685 0.026695 -0.000994 0.004560 0.000785
C5 0.032614 0.030726 0.026739 0.000765 0.004654 -0.001792
C6 0.032614 0.030726 0.026739 -0.000765 0.004654 0.001792
C7 0.027534 0.028650 0.029491 -0.002091 0.004984 -0.002538
C8 0.027534 0.028650 0.029491 0.002091 0.004984 0.002538
C9 0.028316 0.031601 0.026688 -0.002001 0.001847 -0.000524
C10 0.028316 0.031601 0.026688 0.002001 0.001847 0.000524
N1 0.032967 0.034054 0.030167 0.000000 0.003400 -0.007808
N2 0.032967 0.034054 0.030167 -0.000001 0.003400 0.007808
#end of data_U.cif_300K

